REMARK  Name = ../refined-set-2016/3i60/3i60_pocket.pdb
REMARK  233 active torsions:
REMARK  status: ('A' for Active; 'I' for Inactive)
REMARK    1  A    between atoms: _1  and  _3
REMARK    2  A    between atoms: _3  and  _4
REMARK    3  A    between atoms: _3  and  _6
REMARK    4  A    between atoms: _6  and  _7
REMARK    5  A    between atoms: _9  and  _11
REMARK    6  A    between atoms: _11  and  _12
REMARK    7  A    between atoms: _11  and  _14
REMARK    8  A    between atoms: _14  and  _15
REMARK    9  A    between atoms: _20  and  _21
REMARK   10  A    between atoms: _23  and  _25
REMARK   11  A    between atoms: _25  and  _26
REMARK   12  A    between atoms: _25  and  _28
REMARK   13  A    between atoms: _28  and  _29
REMARK   14  A    between atoms: _32  and  _34
REMARK   15  A    between atoms: _34  and  _35
REMARK   16  A    between atoms: _37  and  _39
REMARK   17  A    between atoms: _39  and  _40
REMARK   18  A    between atoms: _39  and  _42
REMARK   19  A    between atoms: _42  and  _43
REMARK   20  A    between atoms: _43  and  _44
REMARK   21  A    between atoms: _47  and  _49
REMARK   22  A    between atoms: _49  and  _50
REMARK   23  A    between atoms: _52  and  _54
REMARK   24  A    between atoms: _54  and  _55
REMARK   25  A    between atoms: _58  and  _60
REMARK   26  A    between atoms: _60  and  _61
REMARK   27  A    between atoms: _60  and  _63
REMARK   28  A    between atoms: _63  and  _64
REMARK   29  A    between atoms: _69  and  _70
REMARK   30  A    between atoms: _72  and  _74
REMARK   31  A    between atoms: _74  and  _75
REMARK   32  A    between atoms: _77  and  _79
REMARK   33  A    between atoms: _79  and  _80
REMARK   34  A    between atoms: _79  and  _82
REMARK   35  A    between atoms: _82  and  _83
REMARK   36  A    between atoms: _83  and  _84
REMARK   37  A    between atoms: _86  and  _88
REMARK   38  A    between atoms: _88  and  _89
REMARK   39  A    between atoms: _88  and  _91
REMARK   40  A    between atoms: _94  and  _96
REMARK   41  A    between atoms: _96  and  _97
REMARK   42  A    between atoms: _96  and  _99
REMARK   43  A    between atoms: _101  and  _103
REMARK   44  A    between atoms: _103  and  _104
REMARK   45  A    between atoms: _103  and  _106
REMARK   46  A    between atoms: _106  and  _107
REMARK   47  A    between atoms: _109  and  _111
REMARK   48  A    between atoms: _111  and  _112
REMARK   49  A    between atoms: _111  and  _114
REMARK   50  A    between atoms: _114  and  _115
REMARK   51  A    between atoms: _115  and  _116
REMARK   52  A    between atoms: _116  and  _117
REMARK   53  A    between atoms: _126  and  _128
REMARK   54  A    between atoms: _128  and  _129
REMARK   55  A    between atoms: _128  and  _131
REMARK   56  A    between atoms: _134  and  _136
REMARK   57  A    between atoms: _136  and  _137
REMARK   58  A    between atoms: _140  and  _142
REMARK   59  A    between atoms: _142  and  _143
REMARK   60  A    between atoms: _142  and  _145
REMARK   61  A    between atoms: _145  and  _146
REMARK   62  A    between atoms: _149  and  _151
REMARK   63  A    between atoms: _151  and  _152
REMARK   64  A    between atoms: _151  and  _154
REMARK   65  A    between atoms: _154  and  _155
REMARK   66  A    between atoms: _155  and  _156
REMARK   67  A    between atoms: _156  and  _157
REMARK   68  A    between atoms: _157  and  _158
REMARK   69  A    between atoms: _162  and  _164
REMARK   70  A    between atoms: _164  and  _165
REMARK   71  A    between atoms: _164  and  _167
REMARK   72  A    between atoms: _167  and  _168
REMARK   73  A    between atoms: _168  and  _169
REMARK   74  A    between atoms: _169  and  _170
REMARK   75  A    between atoms: _170  and  _171
REMARK   76  A    between atoms: _175  and  _177
REMARK   77  A    between atoms: _177  and  _178
REMARK   78  A    between atoms: _177  and  _180
REMARK   79  A    between atoms: _180  and  _181
REMARK   80  A    between atoms: _184  and  _186
REMARK   81  A    between atoms: _186  and  _187
REMARK   82  A    between atoms: _186  and  _189
REMARK   83  A    between atoms: _189  and  _190
REMARK   84  A    between atoms: _192  and  _194
REMARK   85  A    between atoms: _194  and  _195
REMARK   86  A    between atoms: _194  and  _197
REMARK   87  A    between atoms: _197  and  _198
REMARK   88  A    between atoms: _198  and  _199
REMARK   89  A    between atoms: _199  and  _200
REMARK   90  A    between atoms: _209  and  _211
REMARK   91  A    between atoms: _211  and  _212
REMARK   92  A    between atoms: _211  and  _214
REMARK   93  A    between atoms: _214  and  _215
REMARK   94  A    between atoms: _218  and  _220
REMARK   95  A    between atoms: _220  and  _221
REMARK   96  A    between atoms: _220  and  _223
REMARK   97  A    between atoms: _223  and  _224
REMARK   98  A    between atoms: _224  and  _225
REMARK   99  A    between atoms: _228  and  _230
REMARK  100  A    between atoms: _230  and  _231
REMARK  101  A    between atoms: _230  and  _233
REMARK  102  A    between atoms: _233  and  _234
REMARK  103  A    between atoms: _237  and  _239
REMARK  104  A    between atoms: _239  and  _240
REMARK  105  A    between atoms: _239  and  _242
REMARK  106  A    between atoms: _242  and  _243
REMARK  107  A    between atoms: _246  and  _248
REMARK  108  A    between atoms: _248  and  _249
REMARK  109  A    between atoms: _251  and  _253
REMARK  110  A    between atoms: _253  and  _254
REMARK  111  A    between atoms: _253  and  _256
REMARK  112  A    between atoms: _259  and  _261
REMARK  113  A    between atoms: _261  and  _262
REMARK  114  A    between atoms: _261  and  _264
REMARK  115  A    between atoms: _264  and  _265
REMARK  116  A    between atoms: _268  and  _270
REMARK  117  A    between atoms: _270  and  _271
REMARK  118  A    between atoms: _270  and  _273
REMARK  119  A    between atoms: _276  and  _278
REMARK  120  A    between atoms: _278  and  _279
REMARK  121  A    between atoms: _278  and  _281
REMARK  122  A    between atoms: _281  and  _282
REMARK  123  A    between atoms: _282  and  _283
REMARK  124  A    between atoms: _288  and  _290
REMARK  125  A    between atoms: _290  and  _291
REMARK  126  A    between atoms: _290  and  _293
REMARK  127  A    between atoms: _293  and  _294
REMARK  128  A    between atoms: _297  and  _299
REMARK  129  A    between atoms: _299  and  _300
REMARK  130  A    between atoms: _299  and  _302
REMARK  131  A    between atoms: _302  and  _303
REMARK  132  A    between atoms: _306  and  _308
REMARK  133  A    between atoms: _308  and  _309
REMARK  134  A    between atoms: _308  and  _311
REMARK  135  A    between atoms: _311  and  _312
REMARK  136  A    between atoms: _312  and  _313
REMARK  137  A    between atoms: _315  and  _317
REMARK  138  A    between atoms: _317  and  _318
REMARK  139  A    between atoms: _317  and  _320
REMARK  140  A    between atoms: _320  and  _321
REMARK  141  A    between atoms: _321  and  _322
REMARK  142  A    between atoms: _325  and  _327
REMARK  143  A    between atoms: _327  and  _328
REMARK  144  A    between atoms: _327  and  _330
REMARK  145  A    between atoms: _330  and  _331
REMARK  146  A    between atoms: _334  and  _336
REMARK  147  A    between atoms: _336  and  _337
REMARK  148  A    between atoms: _336  and  _339
REMARK  149  A    between atoms: _339  and  _340
REMARK  150  A    between atoms: _343  and  _345
REMARK  151  A    between atoms: _345  and  _346
REMARK  152  A    between atoms: _345  and  _348
REMARK  153  A    between atoms: _348  and  _349
REMARK  154  A    between atoms: _352  and  _354
REMARK  155  A    between atoms: _354  and  _355
REMARK  156  A    between atoms: _354  and  _357
REMARK  157  A    between atoms: _357  and  _358
REMARK  158  A    between atoms: _363  and  _364
REMARK  159  A    between atoms: _366  and  _368
REMARK  160  A    between atoms: _368  and  _369
REMARK  161  A    between atoms: _368  and  _371
REMARK  162  A    between atoms: _371  and  _372
REMARK  163  A    between atoms: _372  and  _373
REMARK  164  A    between atoms: _373  and  _374
REMARK  165  A    between atoms: _374  and  _375
REMARK  166  A    between atoms: _379  and  _381
REMARK  167  A    between atoms: _381  and  _382
REMARK  168  A    between atoms: _381  and  _384
REMARK  169  A    between atoms: _384  and  _385
REMARK  170  A    between atoms: _388  and  _390
REMARK  171  A    between atoms: _390  and  _391
REMARK  172  A    between atoms: _390  and  _393
REMARK  173  A    between atoms: _393  and  _394
REMARK  174  A    between atoms: _397  and  _399
REMARK  175  A    between atoms: _399  and  _400
REMARK  176  A    between atoms: _399  and  _402
REMARK  177  A    between atoms: _402  and  _403
REMARK  178  A    between atoms: _403  and  _404
REMARK  179  A    between atoms: _404  and  _405
REMARK  180  A    between atoms: _405  and  _406
REMARK  181  A    between atoms: _411  and  _412
REMARK  182  A    between atoms: _417  and  _419
REMARK  183  A    between atoms: _419  and  _420
REMARK  184  A    between atoms: _419  and  _422
REMARK  185  A    between atoms: _422  and  _423
REMARK  186  A    between atoms: _425  and  _427
REMARK  187  A    between atoms: _427  and  _428
REMARK  188  A    between atoms: _427  and  _430
REMARK  189  A    between atoms: _430  and  _431
REMARK  190  A    between atoms: _436  and  _438
REMARK  191  A    between atoms: _438  and  _439
REMARK  192  A    between atoms: _438  and  _441
REMARK  193  A    between atoms: _441  and  _442
REMARK  194  A    between atoms: _445  and  _447
REMARK  195  A    between atoms: _447  and  _448
REMARK  196  A    between atoms: _447  and  _450
REMARK  197  A    between atoms: _450  and  _451
REMARK  198  A    between atoms: _454  and  _456
REMARK  199  A    between atoms: _456  and  _457
REMARK  200  A    between atoms: _456  and  _459
REMARK  201  A    between atoms: _459  and  _460
REMARK  202  A    between atoms: _463  and  _465
REMARK  203  A    between atoms: _465  and  _466
REMARK  204  A    between atoms: _465  and  _468
REMARK  205  A    between atoms: _468  and  _469
REMARK  206  A    between atoms: _469  and  _470
REMARK  207  A    between atoms: _470  and  _471
REMARK  208  A    between atoms: _471  and  _472
REMARK  209  A    between atoms: _476  and  _478
REMARK  210  A    between atoms: _478  and  _479
REMARK  211  A    between atoms: _478  and  _481
REMARK  212  A    between atoms: _481  and  _482
REMARK  213  A    between atoms: _485  and  _487
REMARK  214  A    between atoms: _487  and  _488
REMARK  215  A    between atoms: _487  and  _490
REMARK  216  A    between atoms: _492  and  _494
REMARK  217  A    between atoms: _494  and  _495
REMARK  218  A    between atoms: _494  and  _497
REMARK  219  A    between atoms: _497  and  _498
REMARK  220  A    between atoms: _501  and  _503
REMARK  221  A    between atoms: _503  and  _504
REMARK  222  A    between atoms: _503  and  _506
REMARK  223  A    between atoms: _506  and  _507
REMARK  224  A    between atoms: _513  and  _515
REMARK  225  A    between atoms: _515  and  _516
REMARK  226  A    between atoms: _518  and  _520
REMARK  227  A    between atoms: _520  and  _521
REMARK  228  A    between atoms: _520  and  _523
REMARK  229  A    between atoms: _523  and  _524
REMARK  230  A    between atoms: _527  and  _529
REMARK  231  A    between atoms: _529  and  _530
REMARK  232  A    between atoms: _529  and  _532
REMARK  233  A    between atoms: _532  and  _533
REMARK                            x       y       z     vdW  Elec       q    Type
REMARK                         _______ _______ _______ _____ _____    ______ ____
ROOT
ATOM      1  CA  ALA A   7      17.108 -10.997  43.558  0.00  0.00    +0.149 C 
ATOM      2  CB  ALA A   7      18.446 -10.326  43.235  0.00  0.00    +0.031 C 
ENDROOT
BRANCH   1   3
ATOM      3  C   ALA A   7      17.211 -11.775  44.855  0.00  0.00    +0.241 C 
ATOM      4  N   TYR A   8      17.053 -11.073  45.980  0.00  0.00    -0.297 N 
ATOM      5  H   TYR A   8      16.796 -10.068  45.907  0.00  0.00    +0.150 HD
ATOM      6  O   ALA A   7      17.431 -12.989  44.827  0.00  0.00    -0.273 OA
BRANCH   4   7
ATOM      7  CA  TYR A   8      17.227 -11.658  47.319  0.00  0.00    +0.153 C 
BRANCH   7   8
ATOM      8  C   TYR A   8      16.034 -11.347  48.204  0.00  0.00    +0.241 C 
ATOM      9  O   TYR A   8      16.176 -11.129  49.414  0.00  0.00    -0.273 OA
ATOM     10  N   GLY A   9      14.852 -11.327  47.597  0.00  0.00    -0.295 N 
ATOM     11  H   GLY A   9      14.797 -11.461  46.567  0.00  0.00    +0.150 HD
BRANCH  10  12
ATOM     12  CA  GLY A   9      13.643 -11.121  48.359  0.00  0.00    +0.176 C 
BRANCH  12  13
ATOM     13  C   GLY A   9      12.359 -11.117  47.562  0.00  0.00    +0.243 C 
ATOM     14  N   MET A  10      11.296 -10.682  48.234  0.00  0.00    -0.297 N 
ATOM     15  H   MET A  10      11.446 -10.241  49.164  0.00  0.00    +0.150 HD
ATOM     16  O   GLY A   9      12.335 -11.472  46.376  0.00  0.00    -0.273 OA
BRANCH  14  17
ATOM     17  CA  MET A  10       9.940 -10.791  47.736  0.00  0.00    +0.149 C 
BRANCH  17  18
ATOM     18  C   MET A  10       9.108  -9.662  48.322  0.00  0.00    +0.241 C 
ATOM     19  O   MET A  10       9.291  -9.278  49.480  0.00  0.00    -0.273 OA
ATOM     20  N   VAL A  11       8.186  -9.147  47.520  0.00  0.00    -0.297 N 
ATOM     21  H   VAL A  11       8.091  -9.525  46.556  0.00  0.00    +0.150 HD
BRANCH  20  22
ATOM     22  CA  VAL A  11       7.309  -8.078  47.941  0.00  0.00    +0.149 C 
BRANCH  22  23
ATOM     23  C   VAL A  11       5.883  -8.587  48.080  0.00  0.00    +0.241 C 
ATOM     24  N   CYS A  12       5.256  -8.251  49.203  0.00  0.00    -0.296 N 
ATOM     25  H   CYS A  12       5.786  -7.739  49.937  0.00  0.00    +0.150 HD
ATOM     26  O   VAL A  11       5.368  -9.266  47.192  0.00  0.00    -0.273 OA
BRANCH  24  27
ATOM     27  CA  CYS A  12       3.860  -8.570  49.447  0.00  0.00    +0.160 C 
BRANCH  27  28
ATOM     28  C   CYS A  12       3.056  -7.329  49.826  0.00  0.00    +0.242 C 
ATOM     29  O   CYS A  12       3.621  -6.313  50.249  0.00  0.00    -0.273 OA
ATOM     30  N   SER A  13       1.742  -7.421  49.657  0.00  0.00    -0.296 N 
ATOM     31  H   SER A  13       1.364  -8.205  49.088  0.00  0.00    +0.150 HD
BRANCH  30  32
ATOM     32  CA  SER A  13       0.815  -6.469  50.236  0.00  0.00    +0.166 C 
BRANCH  32  33
ATOM     33  CB  SER A  13       0.268  -7.064  51.534  0.00  0.00    +0.229 C 
ATOM     34  OG  SER A  13       0.173  -8.288  51.684  0.00  0.00    -0.286 OA
ENDBRANCH  32  33
BRANCH  32  35
ATOM     35  C   SER A  13      -0.322  -6.167  49.267  0.00  0.00    +0.165 C 
BRANCH  35  36
ATOM     36  O   SER A  13      -1.068  -7.336  49.003  0.00  0.00    -0.380 OA
ATOM     37  H   SER A  13      -1.448  -7.682  49.849  0.00  0.00    +0.211 HD
ENDBRANCH  35  36
ENDBRANCH  32  35
ENDBRANCH  30  32
ENDBRANCH  27  28
BRANCH  27  38
ATOM     38  CB  CYS A  12       3.749  -9.600  50.571  0.00  0.00    +0.098 C 
ATOM     39  SG  CYS A  12       4.238 -11.250  50.069  0.00  0.00    -0.080 S 
ENDBRANCH  27  38
ENDBRANCH  24  27
ENDBRANCH  22  23
BRANCH  22  40
ATOM     40  CB  VAL A  11       7.324  -6.884  46.956  0.00  0.00    +0.027 C 
ATOM     41  CG2 VAL A  11       6.821  -5.631  47.658  0.00  0.00    +0.002 C 
ATOM     42  CG1 VAL A  11       8.722  -6.646  46.391  0.00  0.00    +0.002 C 
ENDBRANCH  22  40
ENDBRANCH  20  22
ENDBRANCH  17  18
BRANCH  17  43
ATOM     43  CB  MET A  10       9.354 -12.136  48.168  0.00  0.00    +0.041 C 
BRANCH  43  44
ATOM     44  CG  MET A  10       8.014 -12.490  47.540  0.00  0.00    +0.060 C 
BRANCH  44  45
ATOM     45  SD  MET A  10       7.174 -13.811  48.439  0.00  0.00    -0.139 S 
ATOM     46  CE  MET A  10       8.040 -15.266  47.886  0.00  0.00    +0.069 C 
ENDBRANCH  44  45
ENDBRANCH  43  44
ENDBRANCH  17  43
ENDBRANCH  14  17
ENDBRANCH  12  13
ENDBRANCH  10  12
ENDBRANCH   7   8
BRANCH   7  47
ATOM     47  CB  TYR A   8      18.530 -11.184  47.991  0.00  0.00    +0.055 C 
BRANCH  47  48
ATOM     48  CG  TYR A   8      18.754  -9.684  47.956  0.00  0.00    -0.020 A 
ATOM     49  CD2 TYR A   8      18.378  -8.881  49.023  0.00  0.00    -0.001 A 
ATOM     50  CE2 TYR A   8      18.581  -7.498  48.991  0.00  0.00    +0.036 A 
ATOM     51  CZ  TYR A   8      19.163  -6.920  47.879  0.00  0.00    +0.134 A 
ATOM     52  CE1 TYR A   8      19.545  -7.700  46.801  0.00  0.00    +0.036 A 
ATOM     53  CD1 TYR A   8      19.339  -9.068  46.842  0.00  0.00    -0.001 A 
BRANCH  51  54
ATOM     54  OH  TYR A   8      19.363  -5.561  47.850  0.00  0.00    -0.506 OA
ATOM     55  HH  TYR A   8      18.868  -5.172  47.086  0.00  0.00    +0.292 HD
ENDBRANCH  51  54
ENDBRANCH  47  48
ENDBRANCH   7  47
ENDBRANCH   4   7
ENDBRANCH   1   3
BRANCH   1  58
ATOM     56  C   GLY A   6      14.744 -10.362  43.590  0.00  0.00    +0.243 C 
ATOM     57  O   GLY A   6      14.368 -11.542  43.647  0.00  0.00    -0.273 OA
ATOM     58  N   ALA A   7      16.026 -10.006  43.598  0.00  0.00    -0.297 N 
ATOM     59  H   ALA A   7      16.269  -8.995  43.634  0.00  0.00    +0.150 HD
BRANCH  56  60
ATOM     60  CA  GLY A   6      13.733  -9.236  43.519  0.00  0.00    +0.176 C 
BRANCH  60  62
ATOM     61  C   GLU A   5      11.300  -9.449  43.332  0.00  0.00    +0.241 C 
ATOM     62  N   GLY A   6      12.440  -9.772  43.930  0.00  0.00    -0.295 N 
ATOM     63  H   GLY A   6      12.410 -10.438  44.728  0.00  0.00    +0.150 HD
ATOM     64  O   GLU A   5      11.227  -8.607  42.445  0.00  0.00    -0.273 OA
BRANCH  61  65
ATOM     65  CA  GLU A   5      10.053 -10.199  43.820  0.00  0.00    +0.149 C 
BRANCH  65  68
ATOM     66  C   GLY A   4       7.666  -9.645  43.962  0.00  0.00    +0.243 C 
ATOM     67  O   GLY A   4       7.549 -10.148  45.074  0.00  0.00    -0.273 OA
ATOM     68  N   GLU A   5       8.809  -9.648  43.276  0.00  0.00    -0.297 N 
ATOM     69  H   GLU A   5       8.818  -9.244  42.318  0.00  0.00    +0.150 HD
BRANCH  66  70
ATOM     70  CA  GLY A   4       6.474  -8.990  43.284  0.00  0.00    +0.176 C 
BRANCH  70  72
ATOM     71  C   ILE A   3       4.167  -8.333  43.754  0.00  0.00    +0.241 C 
ATOM     72  N   GLY A   4       5.206  -9.123  44.016  0.00  0.00    -0.295 N 
ATOM     73  H   GLY A   4       5.119  -9.850  44.755  0.00  0.00    +0.150 HD
ATOM     74  O   ILE A   3       4.196  -7.452  42.881  0.00  0.00    -0.273 OA
BRANCH  71  75
ATOM     75  CA  ILE A   3       2.895  -8.554  44.574  0.00  0.00    +0.149 C 
BRANCH  75  77
ATOM     76  C   TYR A   2       2.044 -10.616  45.580  0.00  0.00    +0.241 C 
ATOM     77  N   ILE A   3       2.987  -9.676  45.515  0.00  0.00    -0.297 N 
ATOM     78  H   ILE A   3       3.810  -9.740  46.148  0.00  0.00    +0.150 HD
ATOM     79  O   TYR A   2       0.993 -10.548  44.956  0.00  0.00    -0.273 OA
BRANCH  76  80
ATOM     80  CA  TYR A   2       2.305 -11.797  46.518  0.00  0.00    +0.153 C 
BRANCH  80  83
ATOM     81  C   SER A   1       0.672 -11.057  48.175  0.00  0.00    +0.241 C 
ATOM     82  O   SER A   1       1.228  -9.949  48.329  0.00  0.00    -0.274 OA
ATOM     83  N   TYR A   2       1.145 -12.014  47.375  0.00  0.00    -0.297 N 
ATOM     84  H   TYR A   2       0.673 -12.941  47.362  0.00  0.00    +0.150 HD
BRANCH  81  85
ATOM     85  CA  SER A   1      -0.639 -11.382  48.887  0.00  0.00    +0.174 C 
BRANCH  85  86
ATOM     86  N   SER A   1      -0.578 -10.981  50.293  0.00  0.00    -0.236 NA
ATOM     87  H   SER A   1      -0.230 -10.026  50.512  0.00  0.00    +0.142 HD
ENDBRANCH  85  86
BRANCH  85  88
ATOM     88  CB  SER A   1      -1.771 -10.652  48.161  0.00  0.00    +0.163 C 
BRANCH  88  89
ATOM     89  OG  SER A   1      -3.020 -10.976  48.727  0.00  0.00    -0.380 OA
ATOM     90  H   SER A   1      -3.028 -10.710  49.680  0.00  0.00    +0.211 HD
ENDBRANCH  88  89
ENDBRANCH  85  88
ENDBRANCH  81  85
ENDBRANCH  80  83
BRANCH  80  91
ATOM     91  CB  TYR A   2       2.647 -13.061  45.713  0.00  0.00    +0.055 C 
BRANCH  91  92
ATOM     92  CG  TYR A   2       3.825 -12.856  44.787  0.00  0.00    -0.020 A 
ATOM     93  CD2 TYR A   2       5.132 -13.101  45.215  0.00  0.00    -0.001 A 
ATOM     94  CE2 TYR A   2       6.204 -12.895  44.373  0.00  0.00    +0.036 A 
ATOM     95  CZ  TYR A   2       5.983 -12.424  43.090  0.00  0.00    +0.134 A 
ATOM     96  CE1 TYR A   2       4.702 -12.173  42.647  0.00  0.00    +0.036 A 
ATOM     97  CD1 TYR A   2       3.635 -12.391  43.488  0.00  0.00    -0.001 A 
BRANCH  95  98
ATOM     98  OH  TYR A   2       7.043 -12.203  42.232  0.00  0.00    -0.506 OA
ATOM     99  HH  TYR A   2       6.700 -11.870  41.365  0.00  0.00    +0.292 HD
ENDBRANCH  95  98
ENDBRANCH  91  92
ENDBRANCH  80  91
ENDBRANCH  76  80
ENDBRANCH  75  77
BRANCH  75 100
ATOM    100  CB  ILE A   3       2.412  -7.200  45.221  0.00  0.00    +0.027 C 
ATOM    101  CG2 ILE A   3       0.953  -7.290  45.730  0.00  0.00    +0.002 C 
BRANCH 100 102
ATOM    102  CG1 ILE A   3       3.370  -6.697  46.297  0.00  0.00    +0.002 C 
ATOM    103  CD1 ILE A   3       3.022  -5.315  46.796  0.00  0.00    +0.000 C 
ENDBRANCH 100 102
ENDBRANCH  75 100
ENDBRANCH  71  75
ENDBRANCH  70  72
ENDBRANCH  66  70
ENDBRANCH  65  68
BRANCH  65 104
ATOM    104  CB  GLU A   5      10.172 -11.689  43.482  0.00  0.00    +0.041 C 
BRANCH 104 105
ATOM    105  CG  GLU A   5      10.363 -11.989  41.991  0.00  0.00    +0.116 C 
BRANCH 105 106
ATOM    106  CD  GLU A   5      10.036 -13.439  41.635  0.00  0.00    +0.365 C 
ATOM    107  OE2 GLU A   5       9.890 -14.279  42.565  0.00  0.00    -0.246 OA
ATOM    108  OE1 GLU A   5       9.906 -13.734  40.414  0.00  0.00    -0.246 OA
ENDBRANCH 105 106
ENDBRANCH 104 105
ENDBRANCH  65 104
ENDBRANCH  61  65
ENDBRANCH  60  62
ENDBRANCH  56  60
ENDBRANCH   1  58
TORSDOF 46
REMARK  Name = ../refined-set-2016/3i60/3i60_pocket.pdb
REMARK  233 active torsions:
REMARK  status: ('A' for Active; 'I' for Inactive)
REMARK    1  A    between atoms: _1  and  _3
REMARK    2  A    between atoms: _3  and  _4
REMARK    3  A    between atoms: _3  and  _6
REMARK    4  A    between atoms: _6  and  _7
REMARK    5  A    between atoms: _9  and  _11
REMARK    6  A    between atoms: _11  and  _12
REMARK    7  A    between atoms: _11  and  _14
REMARK    8  A    between atoms: _14  and  _15
REMARK    9  A    between atoms: _20  and  _21
REMARK   10  A    between atoms: _23  and  _25
REMARK   11  A    between atoms: _25  and  _26
REMARK   12  A    between atoms: _25  and  _28
REMARK   13  A    between atoms: _28  and  _29
REMARK   14  A    between atoms: _32  and  _34
REMARK   15  A    between atoms: _34  and  _35
REMARK   16  A    between atoms: _37  and  _39
REMARK   17  A    between atoms: _39  and  _40
REMARK   18  A    between atoms: _39  and  _42
REMARK   19  A    between atoms: _42  and  _43
REMARK   20  A    between atoms: _43  and  _44
REMARK   21  A    between atoms: _47  and  _49
REMARK   22  A    between atoms: _49  and  _50
REMARK   23  A    between atoms: _52  and  _54
REMARK   24  A    between atoms: _54  and  _55
REMARK   25  A    between atoms: _58  and  _60
REMARK   26  A    between atoms: _60  and  _61
REMARK   27  A    between atoms: _60  and  _63
REMARK   28  A    between atoms: _63  and  _64
REMARK   29  A    between atoms: _69  and  _70
REMARK   30  A    between atoms: _72  and  _74
REMARK   31  A    between atoms: _74  and  _75
REMARK   32  A    between atoms: _77  and  _79
REMARK   33  A    between atoms: _79  and  _80
REMARK   34  A    between atoms: _79  and  _82
REMARK   35  A    between atoms: _82  and  _83
REMARK   36  A    between atoms: _83  and  _84
REMARK   37  A    between atoms: _86  and  _88
REMARK   38  A    between atoms: _88  and  _89
REMARK   39  A    between atoms: _88  and  _91
REMARK   40  A    between atoms: _94  and  _96
REMARK   41  A    between atoms: _96  and  _97
REMARK   42  A    between atoms: _96  and  _99
REMARK   43  A    between atoms: _101  and  _103
REMARK   44  A    between atoms: _103  and  _104
REMARK   45  A    between atoms: _103  and  _106
REMARK   46  A    between atoms: _106  and  _107
REMARK   47  A    between atoms: _109  and  _111
REMARK   48  A    between atoms: _111  and  _112
REMARK   49  A    between atoms: _111  and  _114
REMARK   50  A    between atoms: _114  and  _115
REMARK   51  A    between atoms: _115  and  _116
REMARK   52  A    between atoms: _116  and  _117
REMARK   53  A    between atoms: _126  and  _128
REMARK   54  A    between atoms: _128  and  _129
REMARK   55  A    between atoms: _128  and  _131
REMARK   56  A    between atoms: _134  and  _136
REMARK   57  A    between atoms: _136  and  _137
REMARK   58  A    between atoms: _140  and  _142
REMARK   59  A    between atoms: _142  and  _143
REMARK   60  A    between atoms: _142  and  _145
REMARK   61  A    between atoms: _145  and  _146
REMARK   62  A    between atoms: _149  and  _151
REMARK   63  A    between atoms: _151  and  _152
REMARK   64  A    between atoms: _151  and  _154
REMARK   65  A    between atoms: _154  and  _155
REMARK   66  A    between atoms: _155  and  _156
REMARK   67  A    between atoms: _156  and  _157
REMARK   68  A    between atoms: _157  and  _158
REMARK   69  A    between atoms: _162  and  _164
REMARK   70  A    between atoms: _164  and  _165
REMARK   71  A    between atoms: _164  and  _167
REMARK   72  A    between atoms: _167  and  _168
REMARK   73  A    between atoms: _168  and  _169
REMARK   74  A    between atoms: _169  and  _170
REMARK   75  A    between atoms: _170  and  _171
REMARK   76  A    between atoms: _175  and  _177
REMARK   77  A    between atoms: _177  and  _178
REMARK   78  A    between atoms: _177  and  _180
REMARK   79  A    between atoms: _180  and  _181
REMARK   80  A    between atoms: _184  and  _186
REMARK   81  A    between atoms: _186  and  _187
REMARK   82  A    between atoms: _186  and  _189
REMARK   83  A    between atoms: _189  and  _190
REMARK   84  A    between atoms: _192  and  _194
REMARK   85  A    between atoms: _194  and  _195
REMARK   86  A    between atoms: _194  and  _197
REMARK   87  A    between atoms: _197  and  _198
REMARK   88  A    between atoms: _198  and  _199
REMARK   89  A    between atoms: _199  and  _200
REMARK   90  A    between atoms: _209  and  _211
REMARK   91  A    between atoms: _211  and  _212
REMARK   92  A    between atoms: _211  and  _214
REMARK   93  A    between atoms: _214  and  _215
REMARK   94  A    between atoms: _218  and  _220
REMARK   95  A    between atoms: _220  and  _221
REMARK   96  A    between atoms: _220  and  _223
REMARK   97  A    between atoms: _223  and  _224
REMARK   98  A    between atoms: _224  and  _225
REMARK   99  A    between atoms: _228  and  _230
REMARK  100  A    between atoms: _230  and  _231
REMARK  101  A    between atoms: _230  and  _233
REMARK  102  A    between atoms: _233  and  _234
REMARK  103  A    between atoms: _237  and  _239
REMARK  104  A    between atoms: _239  and  _240
REMARK  105  A    between atoms: _239  and  _242
REMARK  106  A    between atoms: _242  and  _243
REMARK  107  A    between atoms: _246  and  _248
REMARK  108  A    between atoms: _248  and  _249
REMARK  109  A    between atoms: _251  and  _253
REMARK  110  A    between atoms: _253  and  _254
REMARK  111  A    between atoms: _253  and  _256
REMARK  112  A    between atoms: _259  and  _261
REMARK  113  A    between atoms: _261  and  _262
REMARK  114  A    between atoms: _261  and  _264
REMARK  115  A    between atoms: _264  and  _265
REMARK  116  A    between atoms: _268  and  _270
REMARK  117  A    between atoms: _270  and  _271
REMARK  118  A    between atoms: _270  and  _273
REMARK  119  A    between atoms: _276  and  _278
REMARK  120  A    between atoms: _278  and  _279
REMARK  121  A    between atoms: _278  and  _281
REMARK  122  A    between atoms: _281  and  _282
REMARK  123  A    between atoms: _282  and  _283
REMARK  124  A    between atoms: _288  and  _290
REMARK  125  A    between atoms: _290  and  _291
REMARK  126  A    between atoms: _290  and  _293
REMARK  127  A    between atoms: _293  and  _294
REMARK  128  A    between atoms: _297  and  _299
REMARK  129  A    between atoms: _299  and  _300
REMARK  130  A    between atoms: _299  and  _302
REMARK  131  A    between atoms: _302  and  _303
REMARK  132  A    between atoms: _306  and  _308
REMARK  133  A    between atoms: _308  and  _309
REMARK  134  A    between atoms: _308  and  _311
REMARK  135  A    between atoms: _311  and  _312
REMARK  136  A    between atoms: _312  and  _313
REMARK  137  A    between atoms: _315  and  _317
REMARK  138  A    between atoms: _317  and  _318
REMARK  139  A    between atoms: _317  and  _320
REMARK  140  A    between atoms: _320  and  _321
REMARK  141  A    between atoms: _321  and  _322
REMARK  142  A    between atoms: _325  and  _327
REMARK  143  A    between atoms: _327  and  _328
REMARK  144  A    between atoms: _327  and  _330
REMARK  145  A    between atoms: _330  and  _331
REMARK  146  A    between atoms: _334  and  _336
REMARK  147  A    between atoms: _336  and  _337
REMARK  148  A    between atoms: _336  and  _339
REMARK  149  A    between atoms: _339  and  _340
REMARK  150  A    between atoms: _343  and  _345
REMARK  151  A    between atoms: _345  and  _346
REMARK  152  A    between atoms: _345  and  _348
REMARK  153  A    between atoms: _348  and  _349
REMARK  154  A    between atoms: _352  and  _354
REMARK  155  A    between atoms: _354  and  _355
REMARK  156  A    between atoms: _354  and  _357
REMARK  157  A    between atoms: _357  and  _358
REMARK  158  A    between atoms: _363  and  _364
REMARK  159  A    between atoms: _366  and  _368
REMARK  160  A    between atoms: _368  and  _369
REMARK  161  A    between atoms: _368  and  _371
REMARK  162  A    between atoms: _371  and  _372
REMARK  163  A    between atoms: _372  and  _373
REMARK  164  A    between atoms: _373  and  _374
REMARK  165  A    between atoms: _374  and  _375
REMARK  166  A    between atoms: _379  and  _381
REMARK  167  A    between atoms: _381  and  _382
REMARK  168  A    between atoms: _381  and  _384
REMARK  169  A    between atoms: _384  and  _385
REMARK  170  A    between atoms: _388  and  _390
REMARK  171  A    between atoms: _390  and  _391
REMARK  172  A    between atoms: _390  and  _393
REMARK  173  A    between atoms: _393  and  _394
REMARK  174  A    between atoms: _397  and  _399
REMARK  175  A    between atoms: _399  and  _400
REMARK  176  A    between atoms: _399  and  _402
REMARK  177  A    between atoms: _402  and  _403
REMARK  178  A    between atoms: _403  and  _404
REMARK  179  A    between atoms: _404  and  _405
REMARK  180  A    between atoms: _405  and  _406
REMARK  181  A    between atoms: _411  and  _412
REMARK  182  A    between atoms: _417  and  _419
REMARK  183  A    between atoms: _419  and  _420
REMARK  184  A    between atoms: _419  and  _422
REMARK  185  A    between atoms: _422  and  _423
REMARK  186  A    between atoms: _425  and  _427
REMARK  187  A    between atoms: _427  and  _428
REMARK  188  A    between atoms: _427  and  _430
REMARK  189  A    between atoms: _430  and  _431
REMARK  190  A    between atoms: _436  and  _438
REMARK  191  A    between atoms: _438  and  _439
REMARK  192  A    between atoms: _438  and  _441
REMARK  193  A    between atoms: _441  and  _442
REMARK  194  A    between atoms: _445  and  _447
REMARK  195  A    between atoms: _447  and  _448
REMARK  196  A    between atoms: _447  and  _450
REMARK  197  A    between atoms: _450  and  _451
REMARK  198  A    between atoms: _454  and  _456
REMARK  199  A    between atoms: _456  and  _457
REMARK  200  A    between atoms: _456  and  _459
REMARK  201  A    between atoms: _459  and  _460
REMARK  202  A    between atoms: _463  and  _465
REMARK  203  A    between atoms: _465  and  _466
REMARK  204  A    between atoms: _465  and  _468
REMARK  205  A    between atoms: _468  and  _469
REMARK  206  A    between atoms: _469  and  _470
REMARK  207  A    between atoms: _470  and  _471
REMARK  208  A    between atoms: _471  and  _472
REMARK  209  A    between atoms: _476  and  _478
REMARK  210  A    between atoms: _478  and  _479
REMARK  211  A    between atoms: _478  and  _481
REMARK  212  A    between atoms: _481  and  _482
REMARK  213  A    between atoms: _485  and  _487
REMARK  214  A    between atoms: _487  and  _488
REMARK  215  A    between atoms: _487  and  _490
REMARK  216  A    between atoms: _492  and  _494
REMARK  217  A    between atoms: _494  and  _495
REMARK  218  A    between atoms: _494  and  _497
REMARK  219  A    between atoms: _497  and  _498
REMARK  220  A    between atoms: _501  and  _503
REMARK  221  A    between atoms: _503  and  _504
REMARK  222  A    between atoms: _503  and  _506
REMARK  223  A    between atoms: _506  and  _507
REMARK  224  A    between atoms: _513  and  _515
REMARK  225  A    between atoms: _515  and  _516
REMARK  226  A    between atoms: _518  and  _520
REMARK  227  A    between atoms: _520  and  _521
REMARK  228  A    between atoms: _520  and  _523
REMARK  229  A    between atoms: _523  and  _524
REMARK  230  A    between atoms: _527  and  _529
REMARK  231  A    between atoms: _529  and  _530
REMARK  232  A    between atoms: _529  and  _532
REMARK  233  A    between atoms: _532  and  _533
REMARK                            x       y       z     vdW  Elec       q    Type
REMARK                         _______ _______ _______ _____ _____    ______ ____
ROOT
ATOM      1  C   ILE A   4       7.220  -5.927  51.783  0.00  0.00    +0.241 C 
ATOM      2  N   LYS A   5       8.451  -5.457  51.925  0.00  0.00    -0.297 N 
ATOM      3  H   LYS A   5       8.616  -4.702  52.620  0.00  0.00    +0.150 HD
ATOM      4  O   ILE A   4       6.904  -6.800  50.960  0.00  0.00    -0.273 OA
ENDROOT
BRANCH   2   5
ATOM      5  CA  LYS A   5       9.574  -5.946  51.158  0.00  0.00    +0.149 C 
BRANCH   5   6
ATOM      6  C   LYS A   5      10.462  -6.777  52.080  0.00  0.00    +0.241 C 
ATOM      7  O   LYS A   5      11.059  -6.255  53.030  0.00  0.00    -0.273 OA
ATOM      8  N   LYS A   6      10.509  -8.079  51.802  0.00  0.00    -0.297 N 
ATOM      9  H   LYS A   6       9.899  -8.449  51.045  0.00  0.00    +0.150 HD
BRANCH   8  10
ATOM     10  CA  LYS A   6      11.370  -8.996  52.507  0.00  0.00    +0.149 C 
BRANCH  10  11
ATOM     11  C   LYS A   6      12.657  -9.125  51.727  0.00  0.00    +0.241 C 
ATOM     12  N   ILE A   7      13.777  -8.925  52.413  0.00  0.00    -0.297 N 
ATOM     13  H   ILE A   7      13.717  -8.609  53.402  0.00  0.00    +0.150 HD
ATOM     14  O   LYS A   6      12.642  -9.415  50.533  0.00  0.00    -0.273 OA
BRANCH  12  15
ATOM     15  CA  ILE A   7      15.091  -9.139  51.811  0.00  0.00    +0.149 C 
BRANCH  15  16
ATOM     16  C   ILE A   7      15.894 -10.098  52.657  0.00  0.00    +0.241 C 
ATOM     17  O   ILE A   7      15.767 -10.094  53.882  0.00  0.00    -0.273 OA
ATOM     18  N   SER A   8      16.706 -10.918  51.985  0.00  0.00    -0.296 N 
ATOM     19  H   SER A   8      16.714 -10.865  50.946  0.00  0.00    +0.150 HD
BRANCH  18  20
ATOM     20  CA  SER A   8      17.580 -11.881  52.635  0.00  0.00    +0.166 C 
BRANCH  20  21
ATOM     21  CB  SER A   8      19.008 -11.749  52.099  0.00  0.00    +0.229 C 
ATOM     22  OG  SER A   8      19.449 -12.556  51.274  0.00  0.00    -0.286 OA
ENDBRANCH  20  21
BRANCH  20  23
ATOM     23  C   SER A   8      17.047 -13.287  52.416  0.00  0.00    +0.165 C 
BRANCH  23  24
ATOM     24  O   SER A   8      15.735 -13.407  52.931  0.00  0.00    -0.380 OA
ATOM     25  H   SER A   8      15.744 -13.214  53.902  0.00  0.00    +0.211 HD
ENDBRANCH  23  24
ENDBRANCH  20  23
ENDBRANCH  18  20
ENDBRANCH  15  16
BRANCH  15  26
ATOM     26  CB  ILE A   7      15.870  -7.823  51.608  0.00  0.00    +0.027 C 
ATOM     27  CG2 ILE A   7      15.252  -7.028  50.473  0.00  0.00    +0.002 C 
BRANCH  26  28
ATOM     28  CG1 ILE A   7      15.880  -7.010  52.900  0.00  0.00    +0.002 C 
ATOM     29  CD1 ILE A   7      16.151  -5.535  52.713  0.00  0.00    +0.000 C 
ENDBRANCH  26  28
ENDBRANCH  15  26
ENDBRANCH  12  15
ENDBRANCH  10  11
BRANCH  10  30
ATOM     30  CB  LYS A   6      10.707 -10.366  52.609  0.00  0.00    +0.029 C 
BRANCH  30  31
ATOM     31  CG  LYS A   6      11.597 -11.444  53.191  0.00  0.00    +0.000 C 
BRANCH  31  32
ATOM     32  CD  LYS A   6      10.969 -12.821  53.157  0.00  0.00    -0.024 C 
BRANCH  32  33
ATOM     33  CE  LYS A   6      11.838 -13.764  53.956  0.00  0.00    -0.086 C 
BRANCH  33  34
ATOM     34  NZ  LYS A   6      11.471 -15.199  53.804  0.00  0.00    +0.380 N 
ATOM     35  HZ1 LYS A   6      12.110 -15.782  54.381  0.00  0.00    -0.089 HD
ATOM     36  HZ2 LYS A   6      10.491 -15.340  54.121  0.00  0.00    -0.089 HD
ATOM     37  HZ3 LYS A   6      11.556 -15.473  52.805  0.00  0.00    -0.089 HD
ENDBRANCH  33  34
ENDBRANCH  32  33
ENDBRANCH  31  32
ENDBRANCH  30  31
ENDBRANCH  10  30
ENDBRANCH   8  10
ENDBRANCH   5   6
BRANCH   5  38
ATOM     38  CB  LYS A   5      10.353  -4.775  50.552  0.00  0.00    +0.029 C 
BRANCH  38  39
ATOM     39  CG  LYS A   5      11.574  -5.189  49.765  0.00  0.00    +0.000 C 
BRANCH  39  40
ATOM     40  CD  LYS A   5      12.184  -4.012  49.037  0.00  0.00    -0.024 C 
BRANCH  40  41
ATOM     41  CE  LYS A   5      13.558  -4.370  48.514  0.00  0.00    -0.086 C 
BRANCH  41  42
ATOM     42  NZ  LYS A   5      14.076  -3.386  47.527  0.00  0.00    +0.380 N 
ATOM     43  HZ1 LYS A   5      14.141  -2.449  47.974  0.00  0.00    -0.089 HD
ATOM     44  HZ2 LYS A   5      15.019  -3.684  47.205  0.00  0.00    -0.089 HD
ATOM     45  HZ3 LYS A   5      13.429  -3.339  46.714  0.00  0.00    -0.089 HD
ENDBRANCH  41  42
ENDBRANCH  40  41
ENDBRANCH  39  40
ENDBRANCH  38  39
ENDBRANCH   5  38
ENDBRANCH   2   5
BRANCH   1  46
ATOM     46  CA  ILE A   4       6.189  -5.302  52.707  0.00  0.00    +0.149 C 
BRANCH  46  49
ATOM     47  C   ALA A   3       4.795  -3.505  51.833  0.00  0.00    +0.241 C 
ATOM     48  O   ALA A   3       5.399  -2.643  52.478  0.00  0.00    -0.273 OA
ATOM     49  N   ILE A   4       5.064  -4.804  51.919  0.00  0.00    -0.297 N 
ATOM     50  H   ILE A   4       4.459  -5.482  51.413  0.00  0.00    +0.150 HD
BRANCH  47  51
ATOM     51  CA  ALA A   3       3.679  -3.124  50.883  0.00  0.00    +0.149 C 
ATOM     52  CB  ALA A   3       4.251  -2.452  49.649  0.00  0.00    +0.031 C 
BRANCH  51  55
ATOM     53  C   VAL A   2       1.527  -2.636  51.935  0.00  0.00    +0.241 C 
ATOM     54  O   VAL A   2       1.044  -3.717  51.595  0.00  0.00    -0.273 OA
ATOM     55  N   ALA A   3       2.742  -2.240  51.572  0.00  0.00    -0.297 N 
ATOM     56  H   ALA A   3       3.037  -1.266  51.786  0.00  0.00    +0.150 HD
BRANCH  53  57
ATOM     57  CA  VAL A   2       0.730  -1.671  52.808  0.00  0.00    +0.148 C 
BRANCH  57  59
ATOM     58  C   ARG A   1      -1.721  -1.484  52.780  0.00  0.00    +0.238 C 
ATOM     59  N   VAL A   2      -0.616  -2.183  53.043  0.00  0.00    -0.297 N 
ATOM     60  H   VAL A   2      -0.719  -3.141  53.435  0.00  0.00    +0.150 HD
ATOM     61  O   ARG A   1      -1.720  -0.343  52.299  0.00  0.00    -0.274 OA
BRANCH  58  62
ATOM     62  CA  ARG A   1      -3.041  -2.157  53.149  0.00  0.00    +0.145 C 
BRANCH  62  63
ATOM     63  N   ARG A   1      -3.936  -1.139  53.668  0.00  0.00    -0.238 NA
ATOM     64  H   ARG A   1      -4.602  -0.658  53.030  0.00  0.00    +0.142 HD
ENDBRANCH  62  63
BRANCH  62  65
ATOM     65  CB  ARG A   1      -3.653  -2.902  51.958  0.00  0.00    +0.030 C 
BRANCH  65  66
ATOM     66  CG  ARG A   1      -4.764  -3.862  52.365  0.00  0.00    +0.045 C 
BRANCH  66  67
ATOM     67  CD  ARG A   1      -5.269  -4.737  51.218  0.00  0.00    +0.174 C 
BRANCH  67  68
ATOM     68  NE  ARG A   1      -4.265  -5.695  50.749  0.00  0.00    -0.265 N 
ATOM     69  CZ  ARG A   1      -3.977  -6.846  51.350  0.00  0.00    +0.342 C 
ATOM     70  NH2 ARG A   1      -4.587  -7.204  52.468  0.00  0.00    -0.292 N 
ATOM     71 HH21 ARG A   1      -4.349  -8.108  52.924  0.00  0.00    +0.255 HD
ATOM     72 HH22 ARG A   1      -5.305  -6.582  52.891  0.00  0.00    +0.255 HD
ATOM     73  NH1 ARG A   1      -3.061  -7.644  50.828  0.00  0.00    -0.292 N 
ATOM     74 HH11 ARG A   1      -2.831  -8.545  51.293  0.00  0.00    +0.255 HD
ATOM     75 HH12 ARG A   1      -2.571  -7.370  49.953  0.00  0.00    +0.255 HD
ATOM     76  HE  ARG A   1      -3.739  -5.458  49.883  0.00  0.00    +0.259 HD
ENDBRANCH  67  68
ENDBRANCH  66  67
ENDBRANCH  65  66
ENDBRANCH  62  65
ENDBRANCH  58  62
ENDBRANCH  57  59
BRANCH  57  77
ATOM     77  CB  VAL A   2       1.495  -1.403  54.147  0.00  0.00    +0.027 C 
ATOM     78  CG2 VAL A   2       1.651  -2.685  54.973  0.00  0.00    +0.002 C 
ATOM     79  CG1 VAL A   2       0.791  -0.330  54.964  0.00  0.00    +0.002 C 
ENDBRANCH  57  77
ENDBRANCH  53  57
ENDBRANCH  51  55
ENDBRANCH  47  51
ENDBRANCH  46  49
BRANCH  46  80
ATOM     80  CB  ILE A   4       5.747  -6.323  53.775  0.00  0.00    +0.027 C 
ATOM     81  CG2 ILE A   4       6.950  -6.787  54.585  0.00  0.00    +0.002 C 
BRANCH  80  82
ATOM     82  CG1 ILE A   4       4.675  -5.708  54.680  0.00  0.00    +0.002 C 
ATOM     83  CD1 ILE A   4       4.151  -6.636  55.784  0.00  0.00    +0.000 C 
ENDBRANCH  80  82
ENDBRANCH  46  80
ENDBRANCH   1  46
TORSDOF 37
REMARK  Name = ../refined-set-2016/3i60/3i60_pocket.pdb
REMARK  233 active torsions:
REMARK  status: ('A' for Active; 'I' for Inactive)
REMARK    1  A    between atoms: _1  and  _3
REMARK    2  A    between atoms: _3  and  _4
REMARK    3  A    between atoms: _3  and  _6
REMARK    4  A    between atoms: _6  and  _7
REMARK    5  A    between atoms: _9  and  _11
REMARK    6  A    between atoms: _11  and  _12
REMARK    7  A    between atoms: _11  and  _14
REMARK    8  A    between atoms: _14  and  _15
REMARK    9  A    between atoms: _20  and  _21
REMARK   10  A    between atoms: _23  and  _25
REMARK   11  A    between atoms: _25  and  _26
REMARK   12  A    between atoms: _25  and  _28
REMARK   13  A    between atoms: _28  and  _29
REMARK   14  A    between atoms: _32  and  _34
REMARK   15  A    between atoms: _34  and  _35
REMARK   16  A    between atoms: _37  and  _39
REMARK   17  A    between atoms: _39  and  _40
REMARK   18  A    between atoms: _39  and  _42
REMARK   19  A    between atoms: _42  and  _43
REMARK   20  A    between atoms: _43  and  _44
REMARK   21  A    between atoms: _47  and  _49
REMARK   22  A    between atoms: _49  and  _50
REMARK   23  A    between atoms: _52  and  _54
REMARK   24  A    between atoms: _54  and  _55
REMARK   25  A    between atoms: _58  and  _60
REMARK   26  A    between atoms: _60  and  _61
REMARK   27  A    between atoms: _60  and  _63
REMARK   28  A    between atoms: _63  and  _64
REMARK   29  A    between atoms: _69  and  _70
REMARK   30  A    between atoms: _72  and  _74
REMARK   31  A    between atoms: _74  and  _75
REMARK   32  A    between atoms: _77  and  _79
REMARK   33  A    between atoms: _79  and  _80
REMARK   34  A    between atoms: _79  and  _82
REMARK   35  A    between atoms: _82  and  _83
REMARK   36  A    between atoms: _83  and  _84
REMARK   37  A    between atoms: _86  and  _88
REMARK   38  A    between atoms: _88  and  _89
REMARK   39  A    between atoms: _88  and  _91
REMARK   40  A    between atoms: _94  and  _96
REMARK   41  A    between atoms: _96  and  _97
REMARK   42  A    between atoms: _96  and  _99
REMARK   43  A    between atoms: _101  and  _103
REMARK   44  A    between atoms: _103  and  _104
REMARK   45  A    between atoms: _103  and  _106
REMARK   46  A    between atoms: _106  and  _107
REMARK   47  A    between atoms: _109  and  _111
REMARK   48  A    between atoms: _111  and  _112
REMARK   49  A    between atoms: _111  and  _114
REMARK   50  A    between atoms: _114  and  _115
REMARK   51  A    between atoms: _115  and  _116
REMARK   52  A    between atoms: _116  and  _117
REMARK   53  A    between atoms: _126  and  _128
REMARK   54  A    between atoms: _128  and  _129
REMARK   55  A    between atoms: _128  and  _131
REMARK   56  A    between atoms: _134  and  _136
REMARK   57  A    between atoms: _136  and  _137
REMARK   58  A    between atoms: _140  and  _142
REMARK   59  A    between atoms: _142  and  _143
REMARK   60  A    between atoms: _142  and  _145
REMARK   61  A    between atoms: _145  and  _146
REMARK   62  A    between atoms: _149  and  _151
REMARK   63  A    between atoms: _151  and  _152
REMARK   64  A    between atoms: _151  and  _154
REMARK   65  A    between atoms: _154  and  _155
REMARK   66  A    between atoms: _155  and  _156
REMARK   67  A    between atoms: _156  and  _157
REMARK   68  A    between atoms: _157  and  _158
REMARK   69  A    between atoms: _162  and  _164
REMARK   70  A    between atoms: _164  and  _165
REMARK   71  A    between atoms: _164  and  _167
REMARK   72  A    between atoms: _167  and  _168
REMARK   73  A    between atoms: _168  and  _169
REMARK   74  A    between atoms: _169  and  _170
REMARK   75  A    between atoms: _170  and  _171
REMARK   76  A    between atoms: _175  and  _177
REMARK   77  A    between atoms: _177  and  _178
REMARK   78  A    between atoms: _177  and  _180
REMARK   79  A    between atoms: _180  and  _181
REMARK   80  A    between atoms: _184  and  _186
REMARK   81  A    between atoms: _186  and  _187
REMARK   82  A    between atoms: _186  and  _189
REMARK   83  A    between atoms: _189  and  _190
REMARK   84  A    between atoms: _192  and  _194
REMARK   85  A    between atoms: _194  and  _195
REMARK   86  A    between atoms: _194  and  _197
REMARK   87  A    between atoms: _197  and  _198
REMARK   88  A    between atoms: _198  and  _199
REMARK   89  A    between atoms: _199  and  _200
REMARK   90  A    between atoms: _209  and  _211
REMARK   91  A    between atoms: _211  and  _212
REMARK   92  A    between atoms: _211  and  _214
REMARK   93  A    between atoms: _214  and  _215
REMARK   94  A    between atoms: _218  and  _220
REMARK   95  A    between atoms: _220  and  _221
REMARK   96  A    between atoms: _220  and  _223
REMARK   97  A    between atoms: _223  and  _224
REMARK   98  A    between atoms: _224  and  _225
REMARK   99  A    between atoms: _228  and  _230
REMARK  100  A    between atoms: _230  and  _231
REMARK  101  A    between atoms: _230  and  _233
REMARK  102  A    between atoms: _233  and  _234
REMARK  103  A    between atoms: _237  and  _239
REMARK  104  A    between atoms: _239  and  _240
REMARK  105  A    between atoms: _239  and  _242
REMARK  106  A    between atoms: _242  and  _243
REMARK  107  A    between atoms: _246  and  _248
REMARK  108  A    between atoms: _248  and  _249
REMARK  109  A    between atoms: _251  and  _253
REMARK  110  A    between atoms: _253  and  _254
REMARK  111  A    between atoms: _253  and  _256
REMARK  112  A    between atoms: _259  and  _261
REMARK  113  A    between atoms: _261  and  _262
REMARK  114  A    between atoms: _261  and  _264
REMARK  115  A    between atoms: _264  and  _265
REMARK  116  A    between atoms: _268  and  _270
REMARK  117  A    between atoms: _270  and  _271
REMARK  118  A    between atoms: _270  and  _273
REMARK  119  A    between atoms: _276  and  _278
REMARK  120  A    between atoms: _278  and  _279
REMARK  121  A    between atoms: _278  and  _281
REMARK  122  A    between atoms: _281  and  _282
REMARK  123  A    between atoms: _282  and  _283
REMARK  124  A    between atoms: _288  and  _290
REMARK  125  A    between atoms: _290  and  _291
REMARK  126  A    between atoms: _290  and  _293
REMARK  127  A    between atoms: _293  and  _294
REMARK  128  A    between atoms: _297  and  _299
REMARK  129  A    between atoms: _299  and  _300
REMARK  130  A    between atoms: _299  and  _302
REMARK  131  A    between atoms: _302  and  _303
REMARK  132  A    between atoms: _306  and  _308
REMARK  133  A    between atoms: _308  and  _309
REMARK  134  A    between atoms: _308  and  _311
REMARK  135  A    between atoms: _311  and  _312
REMARK  136  A    between atoms: _312  and  _313
REMARK  137  A    between atoms: _315  and  _317
REMARK  138  A    between atoms: _317  and  _318
REMARK  139  A    between atoms: _317  and  _320
REMARK  140  A    between atoms: _320  and  _321
REMARK  141  A    between atoms: _321  and  _322
REMARK  142  A    between atoms: _325  and  _327
REMARK  143  A    between atoms: _327  and  _328
REMARK  144  A    between atoms: _327  and  _330
REMARK  145  A    between atoms: _330  and  _331
REMARK  146  A    between atoms: _334  and  _336
REMARK  147  A    between atoms: _336  and  _337
REMARK  148  A    between atoms: _336  and  _339
REMARK  149  A    between atoms: _339  and  _340
REMARK  150  A    between atoms: _343  and  _345
REMARK  151  A    between atoms: _345  and  _346
REMARK  152  A    between atoms: _345  and  _348
REMARK  153  A    between atoms: _348  and  _349
REMARK  154  A    between atoms: _352  and  _354
REMARK  155  A    between atoms: _354  and  _355
REMARK  156  A    between atoms: _354  and  _357
REMARK  157  A    between atoms: _357  and  _358
REMARK  158  A    between atoms: _363  and  _364
REMARK  159  A    between atoms: _366  and  _368
REMARK  160  A    between atoms: _368  and  _369
REMARK  161  A    between atoms: _368  and  _371
REMARK  162  A    between atoms: _371  and  _372
REMARK  163  A    between atoms: _372  and  _373
REMARK  164  A    between atoms: _373  and  _374
REMARK  165  A    between atoms: _374  and  _375
REMARK  166  A    between atoms: _379  and  _381
REMARK  167  A    between atoms: _381  and  _382
REMARK  168  A    between atoms: _381  and  _384
REMARK  169  A    between atoms: _384  and  _385
REMARK  170  A    between atoms: _388  and  _390
REMARK  171  A    between atoms: _390  and  _391
REMARK  172  A    between atoms: _390  and  _393
REMARK  173  A    between atoms: _393  and  _394
REMARK  174  A    between atoms: _397  and  _399
REMARK  175  A    between atoms: _399  and  _400
REMARK  176  A    between atoms: _399  and  _402
REMARK  177  A    between atoms: _402  and  _403
REMARK  178  A    between atoms: _403  and  _404
REMARK  179  A    between atoms: _404  and  _405
REMARK  180  A    between atoms: _405  and  _406
REMARK  181  A    between atoms: _411  and  _412
REMARK  182  A    between atoms: _417  and  _419
REMARK  183  A    between atoms: _419  and  _420
REMARK  184  A    between atoms: _419  and  _422
REMARK  185  A    between atoms: _422  and  _423
REMARK  186  A    between atoms: _425  and  _427
REMARK  187  A    between atoms: _427  and  _428
REMARK  188  A    between atoms: _427  and  _430
REMARK  189  A    between atoms: _430  and  _431
REMARK  190  A    between atoms: _436  and  _438
REMARK  191  A    between atoms: _438  and  _439
REMARK  192  A    between atoms: _438  and  _441
REMARK  193  A    between atoms: _441  and  _442
REMARK  194  A    between atoms: _445  and  _447
REMARK  195  A    between atoms: _447  and  _448
REMARK  196  A    between atoms: _447  and  _450
REMARK  197  A    between atoms: _450  and  _451
REMARK  198  A    between atoms: _454  and  _456
REMARK  199  A    between atoms: _456  and  _457
REMARK  200  A    between atoms: _456  and  _459
REMARK  201  A    between atoms: _459  and  _460
REMARK  202  A    between atoms: _463  and  _465
REMARK  203  A    between atoms: _465  and  _466
REMARK  204  A    between atoms: _465  and  _468
REMARK  205  A    between atoms: _468  and  _469
REMARK  206  A    between atoms: _469  and  _470
REMARK  207  A    between atoms: _470  and  _471
REMARK  208  A    between atoms: _471  and  _472
REMARK  209  A    between atoms: _476  and  _478
REMARK  210  A    between atoms: _478  and  _479
REMARK  211  A    between atoms: _478  and  _481
REMARK  212  A    between atoms: _481  and  _482
REMARK  213  A    between atoms: _485  and  _487
REMARK  214  A    between atoms: _487  and  _488
REMARK  215  A    between atoms: _487  and  _490
REMARK  216  A    between atoms: _492  and  _494
REMARK  217  A    between atoms: _494  and  _495
REMARK  218  A    between atoms: _494  and  _497
REMARK  219  A    between atoms: _497  and  _498
REMARK  220  A    between atoms: _501  and  _503
REMARK  221  A    between atoms: _503  and  _504
REMARK  222  A    between atoms: _503  and  _506
REMARK  223  A    between atoms: _506  and  _507
REMARK  224  A    between atoms: _513  and  _515
REMARK  225  A    between atoms: _515  and  _516
REMARK  226  A    between atoms: _518  and  _520
REMARK  227  A    between atoms: _520  and  _521
REMARK  228  A    between atoms: _520  and  _523
REMARK  229  A    between atoms: _523  and  _524
REMARK  230  A    between atoms: _527  and  _529
REMARK  231  A    between atoms: _529  and  _530
REMARK  232  A    between atoms: _529  and  _532
REMARK  233  A    between atoms: _532  and  _533
REMARK                            x       y       z     vdW  Elec       q    Type
REMARK                         _______ _______ _______ _____ _____    ______ ____
ROOT
ATOM      1  CA  ARG A   1      22.787  -2.622  48.691  0.00  0.00    +0.145 C 
ENDROOT
BRANCH   1   2
ATOM      2  C   ARG A   1      21.687  -2.362  49.710  0.00  0.00    +0.238 C 
ATOM      3  N   THR A   2      21.420  -3.382  50.532  0.00  0.00    -0.296 N 
ATOM      4  H   THR A   2      21.928  -4.277  50.382  0.00  0.00    +0.150 HD
ATOM      5  O   ARG A   1      21.115  -1.266  49.749  0.00  0.00    -0.274 OA
BRANCH   3   6
ATOM      6  CA  THR A   2      20.461  -3.314  51.623  0.00  0.00    +0.164 C 
BRANCH   6   7
ATOM      7  C   THR A   2      20.712  -2.126  52.553  0.00  0.00    +0.229 C 
ATOM      8  O   THR A   2      19.805  -1.327  52.789  0.00  0.00    -0.286 OA
ENDBRANCH   6   7
BRANCH   6   9
ATOM      9  CB  THR A   2      20.420  -4.638  52.401  0.00  0.00    +0.136 C 
ATOM     10  CG2 THR A   2      19.525  -4.528  53.617  0.00  0.00    +0.034 C 
BRANCH   9  11
ATOM     11  OG1 THR A   2      19.903  -5.661  51.543  0.00  0.00    -0.382 OA
ATOM     12  HG1 THR A   2      20.490  -5.754  50.752  0.00  0.00    +0.210 HD
ENDBRANCH   9  11
ENDBRANCH   6   9
ENDBRANCH   3   6
ENDBRANCH   1   2
BRANCH   1  13
ATOM     13  N   ARG A   1      23.962  -3.221  49.325  0.00  0.00    -0.238 NA
ATOM     14  H   ARG A   1      24.277  -4.162  49.015  0.00  0.00    +0.142 HD
ENDBRANCH   1  13
BRANCH   1  15
ATOM     15  CB  ARG A   1      22.269  -3.526  47.585  0.00  0.00    +0.030 C 
BRANCH  15  16
ATOM     16  CG  ARG A   1      23.173  -3.555  46.394  0.00  0.00    +0.045 C 
BRANCH  16  17
ATOM     17  CD  ARG A   1      22.857  -4.731  45.490  0.00  0.00    +0.174 C 
BRANCH  17  18
ATOM     18  NE  ARG A   1      23.865  -4.853  44.439  0.00  0.00    -0.265 N 
ATOM     19  HE  ARG A   1      24.723  -4.271  44.520  0.00  0.00    +0.259 HD
ATOM     20  CZ  ARG A   1      23.758  -5.659  43.385  0.00  0.00    +0.342 C 
ATOM     21  NH2 ARG A   1      22.682  -6.433  43.234  0.00  0.00    -0.292 N 
ATOM     22 HH21 ARG A   1      21.921  -6.409  43.942  0.00  0.00    +0.255 HD
ATOM     23 HH22 ARG A   1      22.605  -7.060  42.408  0.00  0.00    +0.255 HD
ATOM     24  NH1 ARG A   1      24.730  -5.692  42.476  0.00  0.00    -0.292 N 
ATOM     25 HH11 ARG A   1      25.570  -5.089  42.591  0.00  0.00    +0.255 HD
ATOM     26 HH12 ARG A   1      24.650  -6.321  41.651  0.00  0.00    +0.255 HD
ENDBRANCH  17  18
ENDBRANCH  16  17
ENDBRANCH  15  16
ENDBRANCH   1  15
TORSDOF 10
REMARK  Name = ../refined-set-2016/3i60/3i60_pocket.pdb
REMARK  233 active torsions:
REMARK  status: ('A' for Active; 'I' for Inactive)
REMARK    1  A    between atoms: _1  and  _3
REMARK    2  A    between atoms: _3  and  _4
REMARK    3  A    between atoms: _3  and  _6
REMARK    4  A    between atoms: _6  and  _7
REMARK    5  A    between atoms: _9  and  _11
REMARK    6  A    between atoms: _11  and  _12
REMARK    7  A    between atoms: _11  and  _14
REMARK    8  A    between atoms: _14  and  _15
REMARK    9  A    between atoms: _20  and  _21
REMARK   10  A    between atoms: _23  and  _25
REMARK   11  A    between atoms: _25  and  _26
REMARK   12  A    between atoms: _25  and  _28
REMARK   13  A    between atoms: _28  and  _29
REMARK   14  A    between atoms: _32  and  _34
REMARK   15  A    between atoms: _34  and  _35
REMARK   16  A    between atoms: _37  and  _39
REMARK   17  A    between atoms: _39  and  _40
REMARK   18  A    between atoms: _39  and  _42
REMARK   19  A    between atoms: _42  and  _43
REMARK   20  A    between atoms: _43  and  _44
REMARK   21  A    between atoms: _47  and  _49
REMARK   22  A    between atoms: _49  and  _50
REMARK   23  A    between atoms: _52  and  _54
REMARK   24  A    between atoms: _54  and  _55
REMARK   25  A    between atoms: _58  and  _60
REMARK   26  A    between atoms: _60  and  _61
REMARK   27  A    between atoms: _60  and  _63
REMARK   28  A    between atoms: _63  and  _64
REMARK   29  A    between atoms: _69  and  _70
REMARK   30  A    between atoms: _72  and  _74
REMARK   31  A    between atoms: _74  and  _75
REMARK   32  A    between atoms: _77  and  _79
REMARK   33  A    between atoms: _79  and  _80
REMARK   34  A    between atoms: _79  and  _82
REMARK   35  A    between atoms: _82  and  _83
REMARK   36  A    between atoms: _83  and  _84
REMARK   37  A    between atoms: _86  and  _88
REMARK   38  A    between atoms: _88  and  _89
REMARK   39  A    between atoms: _88  and  _91
REMARK   40  A    between atoms: _94  and  _96
REMARK   41  A    between atoms: _96  and  _97
REMARK   42  A    between atoms: _96  and  _99
REMARK   43  A    between atoms: _101  and  _103
REMARK   44  A    between atoms: _103  and  _104
REMARK   45  A    between atoms: _103  and  _106
REMARK   46  A    between atoms: _106  and  _107
REMARK   47  A    between atoms: _109  and  _111
REMARK   48  A    between atoms: _111  and  _112
REMARK   49  A    between atoms: _111  and  _114
REMARK   50  A    between atoms: _114  and  _115
REMARK   51  A    between atoms: _115  and  _116
REMARK   52  A    between atoms: _116  and  _117
REMARK   53  A    between atoms: _126  and  _128
REMARK   54  A    between atoms: _128  and  _129
REMARK   55  A    between atoms: _128  and  _131
REMARK   56  A    between atoms: _134  and  _136
REMARK   57  A    between atoms: _136  and  _137
REMARK   58  A    between atoms: _140  and  _142
REMARK   59  A    between atoms: _142  and  _143
REMARK   60  A    between atoms: _142  and  _145
REMARK   61  A    between atoms: _145  and  _146
REMARK   62  A    between atoms: _149  and  _151
REMARK   63  A    between atoms: _151  and  _152
REMARK   64  A    between atoms: _151  and  _154
REMARK   65  A    between atoms: _154  and  _155
REMARK   66  A    between atoms: _155  and  _156
REMARK   67  A    between atoms: _156  and  _157
REMARK   68  A    between atoms: _157  and  _158
REMARK   69  A    between atoms: _162  and  _164
REMARK   70  A    between atoms: _164  and  _165
REMARK   71  A    between atoms: _164  and  _167
REMARK   72  A    between atoms: _167  and  _168
REMARK   73  A    between atoms: _168  and  _169
REMARK   74  A    between atoms: _169  and  _170
REMARK   75  A    between atoms: _170  and  _171
REMARK   76  A    between atoms: _175  and  _177
REMARK   77  A    between atoms: _177  and  _178
REMARK   78  A    between atoms: _177  and  _180
REMARK   79  A    between atoms: _180  and  _181
REMARK   80  A    between atoms: _184  and  _186
REMARK   81  A    between atoms: _186  and  _187
REMARK   82  A    between atoms: _186  and  _189
REMARK   83  A    between atoms: _189  and  _190
REMARK   84  A    between atoms: _192  and  _194
REMARK   85  A    between atoms: _194  and  _195
REMARK   86  A    between atoms: _194  and  _197
REMARK   87  A    between atoms: _197  and  _198
REMARK   88  A    between atoms: _198  and  _199
REMARK   89  A    between atoms: _199  and  _200
REMARK   90  A    between atoms: _209  and  _211
REMARK   91  A    between atoms: _211  and  _212
REMARK   92  A    between atoms: _211  and  _214
REMARK   93  A    between atoms: _214  and  _215
REMARK   94  A    between atoms: _218  and  _220
REMARK   95  A    between atoms: _220  and  _221
REMARK   96  A    between atoms: _220  and  _223
REMARK   97  A    between atoms: _223  and  _224
REMARK   98  A    between atoms: _224  and  _225
REMARK   99  A    between atoms: _228  and  _230
REMARK  100  A    between atoms: _230  and  _231
REMARK  101  A    between atoms: _230  and  _233
REMARK  102  A    between atoms: _233  and  _234
REMARK  103  A    between atoms: _237  and  _239
REMARK  104  A    between atoms: _239  and  _240
REMARK  105  A    between atoms: _239  and  _242
REMARK  106  A    between atoms: _242  and  _243
REMARK  107  A    between atoms: _246  and  _248
REMARK  108  A    between atoms: _248  and  _249
REMARK  109  A    between atoms: _251  and  _253
REMARK  110  A    between atoms: _253  and  _254
REMARK  111  A    between atoms: _253  and  _256
REMARK  112  A    between atoms: _259  and  _261
REMARK  113  A    between atoms: _261  and  _262
REMARK  114  A    between atoms: _261  and  _264
REMARK  115  A    between atoms: _264  and  _265
REMARK  116  A    between atoms: _268  and  _270
REMARK  117  A    between atoms: _270  and  _271
REMARK  118  A    between atoms: _270  and  _273
REMARK  119  A    between atoms: _276  and  _278
REMARK  120  A    between atoms: _278  and  _279
REMARK  121  A    between atoms: _278  and  _281
REMARK  122  A    between atoms: _281  and  _282
REMARK  123  A    between atoms: _282  and  _283
REMARK  124  A    between atoms: _288  and  _290
REMARK  125  A    between atoms: _290  and  _291
REMARK  126  A    between atoms: _290  and  _293
REMARK  127  A    between atoms: _293  and  _294
REMARK  128  A    between atoms: _297  and  _299
REMARK  129  A    between atoms: _299  and  _300
REMARK  130  A    between atoms: _299  and  _302
REMARK  131  A    between atoms: _302  and  _303
REMARK  132  A    between atoms: _306  and  _308
REMARK  133  A    between atoms: _308  and  _309
REMARK  134  A    between atoms: _308  and  _311
REMARK  135  A    between atoms: _311  and  _312
REMARK  136  A    between atoms: _312  and  _313
REMARK  137  A    between atoms: _315  and  _317
REMARK  138  A    between atoms: _317  and  _318
REMARK  139  A    between atoms: _317  and  _320
REMARK  140  A    between atoms: _320  and  _321
REMARK  141  A    between atoms: _321  and  _322
REMARK  142  A    between atoms: _325  and  _327
REMARK  143  A    between atoms: _327  and  _328
REMARK  144  A    between atoms: _327  and  _330
REMARK  145  A    between atoms: _330  and  _331
REMARK  146  A    between atoms: _334  and  _336
REMARK  147  A    between atoms: _336  and  _337
REMARK  148  A    between atoms: _336  and  _339
REMARK  149  A    between atoms: _339  and  _340
REMARK  150  A    between atoms: _343  and  _345
REMARK  151  A    between atoms: _345  and  _346
REMARK  152  A    between atoms: _345  and  _348
REMARK  153  A    between atoms: _348  and  _349
REMARK  154  A    between atoms: _352  and  _354
REMARK  155  A    between atoms: _354  and  _355
REMARK  156  A    between atoms: _354  and  _357
REMARK  157  A    between atoms: _357  and  _358
REMARK  158  A    between atoms: _363  and  _364
REMARK  159  A    between atoms: _366  and  _368
REMARK  160  A    between atoms: _368  and  _369
REMARK  161  A    between atoms: _368  and  _371
REMARK  162  A    between atoms: _371  and  _372
REMARK  163  A    between atoms: _372  and  _373
REMARK  164  A    between atoms: _373  and  _374
REMARK  165  A    between atoms: _374  and  _375
REMARK  166  A    between atoms: _379  and  _381
REMARK  167  A    between atoms: _381  and  _382
REMARK  168  A    between atoms: _381  and  _384
REMARK  169  A    between atoms: _384  and  _385
REMARK  170  A    between atoms: _388  and  _390
REMARK  171  A    between atoms: _390  and  _391
REMARK  172  A    between atoms: _390  and  _393
REMARK  173  A    between atoms: _393  and  _394
REMARK  174  A    between atoms: _397  and  _399
REMARK  175  A    between atoms: _399  and  _400
REMARK  176  A    between atoms: _399  and  _402
REMARK  177  A    between atoms: _402  and  _403
REMARK  178  A    between atoms: _403  and  _404
REMARK  179  A    between atoms: _404  and  _405
REMARK  180  A    between atoms: _405  and  _406
REMARK  181  A    between atoms: _411  and  _412
REMARK  182  A    between atoms: _417  and  _419
REMARK  183  A    between atoms: _419  and  _420
REMARK  184  A    between atoms: _419  and  _422
REMARK  185  A    between atoms: _422  and  _423
REMARK  186  A    between atoms: _425  and  _427
REMARK  187  A    between atoms: _427  and  _428
REMARK  188  A    between atoms: _427  and  _430
REMARK  189  A    between atoms: _430  and  _431
REMARK  190  A    between atoms: _436  and  _438
REMARK  191  A    between atoms: _438  and  _439
REMARK  192  A    between atoms: _438  and  _441
REMARK  193  A    between atoms: _441  and  _442
REMARK  194  A    between atoms: _445  and  _447
REMARK  195  A    between atoms: _447  and  _448
REMARK  196  A    between atoms: _447  and  _450
REMARK  197  A    between atoms: _450  and  _451
REMARK  198  A    between atoms: _454  and  _456
REMARK  199  A    between atoms: _456  and  _457
REMARK  200  A    between atoms: _456  and  _459
REMARK  201  A    between atoms: _459  and  _460
REMARK  202  A    between atoms: _463  and  _465
REMARK  203  A    between atoms: _465  and  _466
REMARK  204  A    between atoms: _465  and  _468
REMARK  205  A    between atoms: _468  and  _469
REMARK  206  A    between atoms: _469  and  _470
REMARK  207  A    between atoms: _470  and  _471
REMARK  208  A    between atoms: _471  and  _472
REMARK  209  A    between atoms: _476  and  _478
REMARK  210  A    between atoms: _478  and  _479
REMARK  211  A    between atoms: _478  and  _481
REMARK  212  A    between atoms: _481  and  _482
REMARK  213  A    between atoms: _485  and  _487
REMARK  214  A    between atoms: _487  and  _488
REMARK  215  A    between atoms: _487  and  _490
REMARK  216  A    between atoms: _492  and  _494
REMARK  217  A    between atoms: _494  and  _495
REMARK  218  A    between atoms: _494  and  _497
REMARK  219  A    between atoms: _497  and  _498
REMARK  220  A    between atoms: _501  and  _503
REMARK  221  A    between atoms: _503  and  _504
REMARK  222  A    between atoms: _503  and  _506
REMARK  223  A    between atoms: _506  and  _507
REMARK  224  A    between atoms: _513  and  _515
REMARK  225  A    between atoms: _515  and  _516
REMARK  226  A    between atoms: _518  and  _520
REMARK  227  A    between atoms: _520  and  _521
REMARK  228  A    between atoms: _520  and  _523
REMARK  229  A    between atoms: _523  and  _524
REMARK  230  A    between atoms: _527  and  _529
REMARK  231  A    between atoms: _529  and  _530
REMARK  232  A    between atoms: _529  and  _532
REMARK  233  A    between atoms: _532  and  _533
REMARK                            x       y       z     vdW  Elec       q    Type
REMARK                         _______ _______ _______ _____ _____    ______ ____
ROOT
ATOM      1  CA  GLU A   1      18.835   1.539  50.295  0.00  0.00    +0.134 C 
ENDROOT
BRANCH   1   2
ATOM      2  N   GLU A   1      20.248   1.244  50.537  0.00  0.00    -0.239 NA
ATOM      3  H   GLU A   1      20.586   0.268  50.417  0.00  0.00    +0.142 HD
ENDBRANCH   1   2
BRANCH   1   4
ATOM      4  C   GLU A   1      18.157   2.063  51.555  0.00  0.00    +0.224 C 
ATOM      5  O   GLU A   1      17.432   3.068  51.501  0.00  0.00    -0.287 OA
ENDBRANCH   1   4
BRANCH   1   6
ATOM      6  CB  GLU A   1      18.087   0.310  49.765  0.00  0.00    +0.037 C 
BRANCH   6   7
ATOM      7  CG  GLU A   1      16.565   0.518  49.652  0.00  0.00    +0.116 C 
BRANCH   7   8
ATOM      8  CD  GLU A   1      15.847  -0.684  49.072  0.00  0.00    +0.365 C 
ATOM      9  OE2 GLU A   1      15.780  -1.735  49.738  0.00  0.00    -0.246 OA
ATOM     10  OE1 GLU A   1      15.352  -0.579  47.940  0.00  0.00    -0.246 OA
ENDBRANCH   7   8
ENDBRANCH   6   7
ENDBRANCH   1   6
TORSDOF 5
REMARK  Name = ../refined-set-2016/3i60/3i60_pocket.pdb
REMARK  233 active torsions:
REMARK  status: ('A' for Active; 'I' for Inactive)
REMARK    1  A    between atoms: _1  and  _3
REMARK    2  A    between atoms: _3  and  _4
REMARK    3  A    between atoms: _3  and  _6
REMARK    4  A    between atoms: _6  and  _7
REMARK    5  A    between atoms: _9  and  _11
REMARK    6  A    between atoms: _11  and  _12
REMARK    7  A    between atoms: _11  and  _14
REMARK    8  A    between atoms: _14  and  _15
REMARK    9  A    between atoms: _20  and  _21
REMARK   10  A    between atoms: _23  and  _25
REMARK   11  A    between atoms: _25  and  _26
REMARK   12  A    between atoms: _25  and  _28
REMARK   13  A    between atoms: _28  and  _29
REMARK   14  A    between atoms: _32  and  _34
REMARK   15  A    between atoms: _34  and  _35
REMARK   16  A    between atoms: _37  and  _39
REMARK   17  A    between atoms: _39  and  _40
REMARK   18  A    between atoms: _39  and  _42
REMARK   19  A    between atoms: _42  and  _43
REMARK   20  A    between atoms: _43  and  _44
REMARK   21  A    between atoms: _47  and  _49
REMARK   22  A    between atoms: _49  and  _50
REMARK   23  A    between atoms: _52  and  _54
REMARK   24  A    between atoms: _54  and  _55
REMARK   25  A    between atoms: _58  and  _60
REMARK   26  A    between atoms: _60  and  _61
REMARK   27  A    between atoms: _60  and  _63
REMARK   28  A    between atoms: _63  and  _64
REMARK   29  A    between atoms: _69  and  _70
REMARK   30  A    between atoms: _72  and  _74
REMARK   31  A    between atoms: _74  and  _75
REMARK   32  A    between atoms: _77  and  _79
REMARK   33  A    between atoms: _79  and  _80
REMARK   34  A    between atoms: _79  and  _82
REMARK   35  A    between atoms: _82  and  _83
REMARK   36  A    between atoms: _83  and  _84
REMARK   37  A    between atoms: _86  and  _88
REMARK   38  A    between atoms: _88  and  _89
REMARK   39  A    between atoms: _88  and  _91
REMARK   40  A    between atoms: _94  and  _96
REMARK   41  A    between atoms: _96  and  _97
REMARK   42  A    between atoms: _96  and  _99
REMARK   43  A    between atoms: _101  and  _103
REMARK   44  A    between atoms: _103  and  _104
REMARK   45  A    between atoms: _103  and  _106
REMARK   46  A    between atoms: _106  and  _107
REMARK   47  A    between atoms: _109  and  _111
REMARK   48  A    between atoms: _111  and  _112
REMARK   49  A    between atoms: _111  and  _114
REMARK   50  A    between atoms: _114  and  _115
REMARK   51  A    between atoms: _115  and  _116
REMARK   52  A    between atoms: _116  and  _117
REMARK   53  A    between atoms: _126  and  _128
REMARK   54  A    between atoms: _128  and  _129
REMARK   55  A    between atoms: _128  and  _131
REMARK   56  A    between atoms: _134  and  _136
REMARK   57  A    between atoms: _136  and  _137
REMARK   58  A    between atoms: _140  and  _142
REMARK   59  A    between atoms: _142  and  _143
REMARK   60  A    between atoms: _142  and  _145
REMARK   61  A    between atoms: _145  and  _146
REMARK   62  A    between atoms: _149  and  _151
REMARK   63  A    between atoms: _151  and  _152
REMARK   64  A    between atoms: _151  and  _154
REMARK   65  A    between atoms: _154  and  _155
REMARK   66  A    between atoms: _155  and  _156
REMARK   67  A    between atoms: _156  and  _157
REMARK   68  A    between atoms: _157  and  _158
REMARK   69  A    between atoms: _162  and  _164
REMARK   70  A    between atoms: _164  and  _165
REMARK   71  A    between atoms: _164  and  _167
REMARK   72  A    between atoms: _167  and  _168
REMARK   73  A    between atoms: _168  and  _169
REMARK   74  A    between atoms: _169  and  _170
REMARK   75  A    between atoms: _170  and  _171
REMARK   76  A    between atoms: _175  and  _177
REMARK   77  A    between atoms: _177  and  _178
REMARK   78  A    between atoms: _177  and  _180
REMARK   79  A    between atoms: _180  and  _181
REMARK   80  A    between atoms: _184  and  _186
REMARK   81  A    between atoms: _186  and  _187
REMARK   82  A    between atoms: _186  and  _189
REMARK   83  A    between atoms: _189  and  _190
REMARK   84  A    between atoms: _192  and  _194
REMARK   85  A    between atoms: _194  and  _195
REMARK   86  A    between atoms: _194  and  _197
REMARK   87  A    between atoms: _197  and  _198
REMARK   88  A    between atoms: _198  and  _199
REMARK   89  A    between atoms: _199  and  _200
REMARK   90  A    between atoms: _209  and  _211
REMARK   91  A    between atoms: _211  and  _212
REMARK   92  A    between atoms: _211  and  _214
REMARK   93  A    between atoms: _214  and  _215
REMARK   94  A    between atoms: _218  and  _220
REMARK   95  A    between atoms: _220  and  _221
REMARK   96  A    between atoms: _220  and  _223
REMARK   97  A    between atoms: _223  and  _224
REMARK   98  A    between atoms: _224  and  _225
REMARK   99  A    between atoms: _228  and  _230
REMARK  100  A    between atoms: _230  and  _231
REMARK  101  A    between atoms: _230  and  _233
REMARK  102  A    between atoms: _233  and  _234
REMARK  103  A    between atoms: _237  and  _239
REMARK  104  A    between atoms: _239  and  _240
REMARK  105  A    between atoms: _239  and  _242
REMARK  106  A    between atoms: _242  and  _243
REMARK  107  A    between atoms: _246  and  _248
REMARK  108  A    between atoms: _248  and  _249
REMARK  109  A    between atoms: _251  and  _253
REMARK  110  A    between atoms: _253  and  _254
REMARK  111  A    between atoms: _253  and  _256
REMARK  112  A    between atoms: _259  and  _261
REMARK  113  A    between atoms: _261  and  _262
REMARK  114  A    between atoms: _261  and  _264
REMARK  115  A    between atoms: _264  and  _265
REMARK  116  A    between atoms: _268  and  _270
REMARK  117  A    between atoms: _270  and  _271
REMARK  118  A    between atoms: _270  and  _273
REMARK  119  A    between atoms: _276  and  _278
REMARK  120  A    between atoms: _278  and  _279
REMARK  121  A    between atoms: _278  and  _281
REMARK  122  A    between atoms: _281  and  _282
REMARK  123  A    between atoms: _282  and  _283
REMARK  124  A    between atoms: _288  and  _290
REMARK  125  A    between atoms: _290  and  _291
REMARK  126  A    between atoms: _290  and  _293
REMARK  127  A    between atoms: _293  and  _294
REMARK  128  A    between atoms: _297  and  _299
REMARK  129  A    between atoms: _299  and  _300
REMARK  130  A    between atoms: _299  and  _302
REMARK  131  A    between atoms: _302  and  _303
REMARK  132  A    between atoms: _306  and  _308
REMARK  133  A    between atoms: _308  and  _309
REMARK  134  A    between atoms: _308  and  _311
REMARK  135  A    between atoms: _311  and  _312
REMARK  136  A    between atoms: _312  and  _313
REMARK  137  A    between atoms: _315  and  _317
REMARK  138  A    between atoms: _317  and  _318
REMARK  139  A    between atoms: _317  and  _320
REMARK  140  A    between atoms: _320  and  _321
REMARK  141  A    between atoms: _321  and  _322
REMARK  142  A    between atoms: _325  and  _327
REMARK  143  A    between atoms: _327  and  _328
REMARK  144  A    between atoms: _327  and  _330
REMARK  145  A    between atoms: _330  and  _331
REMARK  146  A    between atoms: _334  and  _336
REMARK  147  A    between atoms: _336  and  _337
REMARK  148  A    between atoms: _336  and  _339
REMARK  149  A    between atoms: _339  and  _340
REMARK  150  A    between atoms: _343  and  _345
REMARK  151  A    between atoms: _345  and  _346
REMARK  152  A    between atoms: _345  and  _348
REMARK  153  A    between atoms: _348  and  _349
REMARK  154  A    between atoms: _352  and  _354
REMARK  155  A    between atoms: _354  and  _355
REMARK  156  A    between atoms: _354  and  _357
REMARK  157  A    between atoms: _357  and  _358
REMARK  158  A    between atoms: _363  and  _364
REMARK  159  A    between atoms: _366  and  _368
REMARK  160  A    between atoms: _368  and  _369
REMARK  161  A    between atoms: _368  and  _371
REMARK  162  A    between atoms: _371  and  _372
REMARK  163  A    between atoms: _372  and  _373
REMARK  164  A    between atoms: _373  and  _374
REMARK  165  A    between atoms: _374  and  _375
REMARK  166  A    between atoms: _379  and  _381
REMARK  167  A    between atoms: _381  and  _382
REMARK  168  A    between atoms: _381  and  _384
REMARK  169  A    between atoms: _384  and  _385
REMARK  170  A    between atoms: _388  and  _390
REMARK  171  A    between atoms: _390  and  _391
REMARK  172  A    between atoms: _390  and  _393
REMARK  173  A    between atoms: _393  and  _394
REMARK  174  A    between atoms: _397  and  _399
REMARK  175  A    between atoms: _399  and  _400
REMARK  176  A    between atoms: _399  and  _402
REMARK  177  A    between atoms: _402  and  _403
REMARK  178  A    between atoms: _403  and  _404
REMARK  179  A    between atoms: _404  and  _405
REMARK  180  A    between atoms: _405  and  _406
REMARK  181  A    between atoms: _411  and  _412
REMARK  182  A    between atoms: _417  and  _419
REMARK  183  A    between atoms: _419  and  _420
REMARK  184  A    between atoms: _419  and  _422
REMARK  185  A    between atoms: _422  and  _423
REMARK  186  A    between atoms: _425  and  _427
REMARK  187  A    between atoms: _427  and  _428
REMARK  188  A    between atoms: _427  and  _430
REMARK  189  A    between atoms: _430  and  _431
REMARK  190  A    between atoms: _436  and  _438
REMARK  191  A    between atoms: _438  and  _439
REMARK  192  A    between atoms: _438  and  _441
REMARK  193  A    between atoms: _441  and  _442
REMARK  194  A    between atoms: _445  and  _447
REMARK  195  A    between atoms: _447  and  _448
REMARK  196  A    between atoms: _447  and  _450
REMARK  197  A    between atoms: _450  and  _451
REMARK  198  A    between atoms: _454  and  _456
REMARK  199  A    between atoms: _456  and  _457
REMARK  200  A    between atoms: _456  and  _459
REMARK  201  A    between atoms: _459  and  _460
REMARK  202  A    between atoms: _463  and  _465
REMARK  203  A    between atoms: _465  and  _466
REMARK  204  A    between atoms: _465  and  _468
REMARK  205  A    between atoms: _468  and  _469
REMARK  206  A    between atoms: _469  and  _470
REMARK  207  A    between atoms: _470  and  _471
REMARK  208  A    between atoms: _471  and  _472
REMARK  209  A    between atoms: _476  and  _478
REMARK  210  A    between atoms: _478  and  _479
REMARK  211  A    between atoms: _478  and  _481
REMARK  212  A    between atoms: _481  and  _482
REMARK  213  A    between atoms: _485  and  _487
REMARK  214  A    between atoms: _487  and  _488
REMARK  215  A    between atoms: _487  and  _490
REMARK  216  A    between atoms: _492  and  _494
REMARK  217  A    between atoms: _494  and  _495
REMARK  218  A    between atoms: _494  and  _497
REMARK  219  A    between atoms: _497  and  _498
REMARK  220  A    between atoms: _501  and  _503
REMARK  221  A    between atoms: _503  and  _504
REMARK  222  A    between atoms: _503  and  _506
REMARK  223  A    between atoms: _506  and  _507
REMARK  224  A    between atoms: _513  and  _515
REMARK  225  A    between atoms: _515  and  _516
REMARK  226  A    between atoms: _518  and  _520
REMARK  227  A    between atoms: _520  and  _521
REMARK  228  A    between atoms: _520  and  _523
REMARK  229  A    between atoms: _523  and  _524
REMARK  230  A    between atoms: _527  and  _529
REMARK  231  A    between atoms: _529  and  _530
REMARK  232  A    between atoms: _529  and  _532
REMARK  233  A    between atoms: _532  and  _533
REMARK                            x       y       z     vdW  Elec       q    Type
REMARK                         _______ _______ _______ _____ _____    ______ ____
ROOT
ATOM      1  CA  LEU A   1      15.181   6.087  51.876  0.00  0.00    +0.133 C 
ENDROOT
BRANCH   1   2
ATOM      2  N   LEU A   1      16.641   5.935  51.804  0.00  0.00    -0.239 NA
ATOM      3  H   LEU A   1      17.051   4.980  51.758  0.00  0.00    +0.142 HD
ENDBRANCH   1   2
BRANCH   1   4
ATOM      4  C   LEU A   1      14.698   6.620  53.210  0.00  0.00    +0.224 C 
ATOM      5  O   LEU A   1      13.644   7.276  53.292  0.00  0.00    -0.287 OA
ENDBRANCH   1   4
BRANCH   1   6
ATOM      6  CB  LEU A   1      14.476   4.771  51.557  0.00  0.00    +0.025 C 
BRANCH   6   7
ATOM      7  CG  LEU A   1      13.961   4.618  50.122  0.00  0.00    +0.002 C 
ATOM      8  CD2 LEU A   1      13.768   3.139  49.786  0.00  0.00    +0.000 C 
ATOM      9  CD1 LEU A   1      14.851   5.345  49.095  0.00  0.00    +0.000 C 
ENDBRANCH   6   7
ENDBRANCH   1   6
TORSDOF 4
REMARK  Name = ../refined-set-2016/3i60/3i60_pocket.pdb
REMARK  233 active torsions:
REMARK  status: ('A' for Active; 'I' for Inactive)
REMARK    1  A    between atoms: _1  and  _3
REMARK    2  A    between atoms: _3  and  _4
REMARK    3  A    between atoms: _3  and  _6
REMARK    4  A    between atoms: _6  and  _7
REMARK    5  A    between atoms: _9  and  _11
REMARK    6  A    between atoms: _11  and  _12
REMARK    7  A    between atoms: _11  and  _14
REMARK    8  A    between atoms: _14  and  _15
REMARK    9  A    between atoms: _20  and  _21
REMARK   10  A    between atoms: _23  and  _25
REMARK   11  A    between atoms: _25  and  _26
REMARK   12  A    between atoms: _25  and  _28
REMARK   13  A    between atoms: _28  and  _29
REMARK   14  A    between atoms: _32  and  _34
REMARK   15  A    between atoms: _34  and  _35
REMARK   16  A    between atoms: _37  and  _39
REMARK   17  A    between atoms: _39  and  _40
REMARK   18  A    between atoms: _39  and  _42
REMARK   19  A    between atoms: _42  and  _43
REMARK   20  A    between atoms: _43  and  _44
REMARK   21  A    between atoms: _47  and  _49
REMARK   22  A    between atoms: _49  and  _50
REMARK   23  A    between atoms: _52  and  _54
REMARK   24  A    between atoms: _54  and  _55
REMARK   25  A    between atoms: _58  and  _60
REMARK   26  A    between atoms: _60  and  _61
REMARK   27  A    between atoms: _60  and  _63
REMARK   28  A    between atoms: _63  and  _64
REMARK   29  A    between atoms: _69  and  _70
REMARK   30  A    between atoms: _72  and  _74
REMARK   31  A    between atoms: _74  and  _75
REMARK   32  A    between atoms: _77  and  _79
REMARK   33  A    between atoms: _79  and  _80
REMARK   34  A    between atoms: _79  and  _82
REMARK   35  A    between atoms: _82  and  _83
REMARK   36  A    between atoms: _83  and  _84
REMARK   37  A    between atoms: _86  and  _88
REMARK   38  A    between atoms: _88  and  _89
REMARK   39  A    between atoms: _88  and  _91
REMARK   40  A    between atoms: _94  and  _96
REMARK   41  A    between atoms: _96  and  _97
REMARK   42  A    between atoms: _96  and  _99
REMARK   43  A    between atoms: _101  and  _103
REMARK   44  A    between atoms: _103  and  _104
REMARK   45  A    between atoms: _103  and  _106
REMARK   46  A    between atoms: _106  and  _107
REMARK   47  A    between atoms: _109  and  _111
REMARK   48  A    between atoms: _111  and  _112
REMARK   49  A    between atoms: _111  and  _114
REMARK   50  A    between atoms: _114  and  _115
REMARK   51  A    between atoms: _115  and  _116
REMARK   52  A    between atoms: _116  and  _117
REMARK   53  A    between atoms: _126  and  _128
REMARK   54  A    between atoms: _128  and  _129
REMARK   55  A    between atoms: _128  and  _131
REMARK   56  A    between atoms: _134  and  _136
REMARK   57  A    between atoms: _136  and  _137
REMARK   58  A    between atoms: _140  and  _142
REMARK   59  A    between atoms: _142  and  _143
REMARK   60  A    between atoms: _142  and  _145
REMARK   61  A    between atoms: _145  and  _146
REMARK   62  A    between atoms: _149  and  _151
REMARK   63  A    between atoms: _151  and  _152
REMARK   64  A    between atoms: _151  and  _154
REMARK   65  A    between atoms: _154  and  _155
REMARK   66  A    between atoms: _155  and  _156
REMARK   67  A    between atoms: _156  and  _157
REMARK   68  A    between atoms: _157  and  _158
REMARK   69  A    between atoms: _162  and  _164
REMARK   70  A    between atoms: _164  and  _165
REMARK   71  A    between atoms: _164  and  _167
REMARK   72  A    between atoms: _167  and  _168
REMARK   73  A    between atoms: _168  and  _169
REMARK   74  A    between atoms: _169  and  _170
REMARK   75  A    between atoms: _170  and  _171
REMARK   76  A    between atoms: _175  and  _177
REMARK   77  A    between atoms: _177  and  _178
REMARK   78  A    between atoms: _177  and  _180
REMARK   79  A    between atoms: _180  and  _181
REMARK   80  A    between atoms: _184  and  _186
REMARK   81  A    between atoms: _186  and  _187
REMARK   82  A    between atoms: _186  and  _189
REMARK   83  A    between atoms: _189  and  _190
REMARK   84  A    between atoms: _192  and  _194
REMARK   85  A    between atoms: _194  and  _195
REMARK   86  A    between atoms: _194  and  _197
REMARK   87  A    between atoms: _197  and  _198
REMARK   88  A    between atoms: _198  and  _199
REMARK   89  A    between atoms: _199  and  _200
REMARK   90  A    between atoms: _209  and  _211
REMARK   91  A    between atoms: _211  and  _212
REMARK   92  A    between atoms: _211  and  _214
REMARK   93  A    between atoms: _214  and  _215
REMARK   94  A    between atoms: _218  and  _220
REMARK   95  A    between atoms: _220  and  _221
REMARK   96  A    between atoms: _220  and  _223
REMARK   97  A    between atoms: _223  and  _224
REMARK   98  A    between atoms: _224  and  _225
REMARK   99  A    between atoms: _228  and  _230
REMARK  100  A    between atoms: _230  and  _231
REMARK  101  A    between atoms: _230  and  _233
REMARK  102  A    between atoms: _233  and  _234
REMARK  103  A    between atoms: _237  and  _239
REMARK  104  A    between atoms: _239  and  _240
REMARK  105  A    between atoms: _239  and  _242
REMARK  106  A    between atoms: _242  and  _243
REMARK  107  A    between atoms: _246  and  _248
REMARK  108  A    between atoms: _248  and  _249
REMARK  109  A    between atoms: _251  and  _253
REMARK  110  A    between atoms: _253  and  _254
REMARK  111  A    between atoms: _253  and  _256
REMARK  112  A    between atoms: _259  and  _261
REMARK  113  A    between atoms: _261  and  _262
REMARK  114  A    between atoms: _261  and  _264
REMARK  115  A    between atoms: _264  and  _265
REMARK  116  A    between atoms: _268  and  _270
REMARK  117  A    between atoms: _270  and  _271
REMARK  118  A    between atoms: _270  and  _273
REMARK  119  A    between atoms: _276  and  _278
REMARK  120  A    between atoms: _278  and  _279
REMARK  121  A    between atoms: _278  and  _281
REMARK  122  A    between atoms: _281  and  _282
REMARK  123  A    between atoms: _282  and  _283
REMARK  124  A    between atoms: _288  and  _290
REMARK  125  A    between atoms: _290  and  _291
REMARK  126  A    between atoms: _290  and  _293
REMARK  127  A    between atoms: _293  and  _294
REMARK  128  A    between atoms: _297  and  _299
REMARK  129  A    between atoms: _299  and  _300
REMARK  130  A    between atoms: _299  and  _302
REMARK  131  A    between atoms: _302  and  _303
REMARK  132  A    between atoms: _306  and  _308
REMARK  133  A    between atoms: _308  and  _309
REMARK  134  A    between atoms: _308  and  _311
REMARK  135  A    between atoms: _311  and  _312
REMARK  136  A    between atoms: _312  and  _313
REMARK  137  A    between atoms: _315  and  _317
REMARK  138  A    between atoms: _317  and  _318
REMARK  139  A    between atoms: _317  and  _320
REMARK  140  A    between atoms: _320  and  _321
REMARK  141  A    between atoms: _321  and  _322
REMARK  142  A    between atoms: _325  and  _327
REMARK  143  A    between atoms: _327  and  _328
REMARK  144  A    between atoms: _327  and  _330
REMARK  145  A    between atoms: _330  and  _331
REMARK  146  A    between atoms: _334  and  _336
REMARK  147  A    between atoms: _336  and  _337
REMARK  148  A    between atoms: _336  and  _339
REMARK  149  A    between atoms: _339  and  _340
REMARK  150  A    between atoms: _343  and  _345
REMARK  151  A    between atoms: _345  and  _346
REMARK  152  A    between atoms: _345  and  _348
REMARK  153  A    between atoms: _348  and  _349
REMARK  154  A    between atoms: _352  and  _354
REMARK  155  A    between atoms: _354  and  _355
REMARK  156  A    between atoms: _354  and  _357
REMARK  157  A    between atoms: _357  and  _358
REMARK  158  A    between atoms: _363  and  _364
REMARK  159  A    between atoms: _366  and  _368
REMARK  160  A    between atoms: _368  and  _369
REMARK  161  A    between atoms: _368  and  _371
REMARK  162  A    between atoms: _371  and  _372
REMARK  163  A    between atoms: _372  and  _373
REMARK  164  A    between atoms: _373  and  _374
REMARK  165  A    between atoms: _374  and  _375
REMARK  166  A    between atoms: _379  and  _381
REMARK  167  A    between atoms: _381  and  _382
REMARK  168  A    between atoms: _381  and  _384
REMARK  169  A    between atoms: _384  and  _385
REMARK  170  A    between atoms: _388  and  _390
REMARK  171  A    between atoms: _390  and  _391
REMARK  172  A    between atoms: _390  and  _393
REMARK  173  A    between atoms: _393  and  _394
REMARK  174  A    between atoms: _397  and  _399
REMARK  175  A    between atoms: _399  and  _400
REMARK  176  A    between atoms: _399  and  _402
REMARK  177  A    between atoms: _402  and  _403
REMARK  178  A    between atoms: _403  and  _404
REMARK  179  A    between atoms: _404  and  _405
REMARK  180  A    between atoms: _405  and  _406
REMARK  181  A    between atoms: _411  and  _412
REMARK  182  A    between atoms: _417  and  _419
REMARK  183  A    between atoms: _419  and  _420
REMARK  184  A    between atoms: _419  and  _422
REMARK  185  A    between atoms: _422  and  _423
REMARK  186  A    between atoms: _425  and  _427
REMARK  187  A    between atoms: _427  and  _428
REMARK  188  A    between atoms: _427  and  _430
REMARK  189  A    between atoms: _430  and  _431
REMARK  190  A    between atoms: _436  and  _438
REMARK  191  A    between atoms: _438  and  _439
REMARK  192  A    between atoms: _438  and  _441
REMARK  193  A    between atoms: _441  and  _442
REMARK  194  A    between atoms: _445  and  _447
REMARK  195  A    between atoms: _447  and  _448
REMARK  196  A    between atoms: _447  and  _450
REMARK  197  A    between atoms: _450  and  _451
REMARK  198  A    between atoms: _454  and  _456
REMARK  199  A    between atoms: _456  and  _457
REMARK  200  A    between atoms: _456  and  _459
REMARK  201  A    between atoms: _459  and  _460
REMARK  202  A    between atoms: _463  and  _465
REMARK  203  A    between atoms: _465  and  _466
REMARK  204  A    between atoms: _465  and  _468
REMARK  205  A    between atoms: _468  and  _469
REMARK  206  A    between atoms: _469  and  _470
REMARK  207  A    between atoms: _470  and  _471
REMARK  208  A    between atoms: _471  and  _472
REMARK  209  A    between atoms: _476  and  _478
REMARK  210  A    between atoms: _478  and  _479
REMARK  211  A    between atoms: _478  and  _481
REMARK  212  A    between atoms: _481  and  _482
REMARK  213  A    between atoms: _485  and  _487
REMARK  214  A    between atoms: _487  and  _488
REMARK  215  A    between atoms: _487  and  _490
REMARK  216  A    between atoms: _492  and  _494
REMARK  217  A    between atoms: _494  and  _495
REMARK  218  A    between atoms: _494  and  _497
REMARK  219  A    between atoms: _497  and  _498
REMARK  220  A    between atoms: _501  and  _503
REMARK  221  A    between atoms: _503  and  _504
REMARK  222  A    between atoms: _503  and  _506
REMARK  223  A    between atoms: _506  and  _507
REMARK  224  A    between atoms: _513  and  _515
REMARK  225  A    between atoms: _515  and  _516
REMARK  226  A    between atoms: _518  and  _520
REMARK  227  A    between atoms: _520  and  _521
REMARK  228  A    between atoms: _520  and  _523
REMARK  229  A    between atoms: _523  and  _524
REMARK  230  A    between atoms: _527  and  _529
REMARK  231  A    between atoms: _529  and  _530
REMARK  232  A    between atoms: _529  and  _532
REMARK  233  A    between atoms: _532  and  _533
REMARK                            x       y       z     vdW  Elec       q    Type
REMARK                         _______ _______ _______ _____ _____    ______ ____
ROOT
ATOM      1  CA  ILE A   1       8.955   5.701  47.941  0.00  0.00    +0.145 C 
ENDROOT
BRANCH   1   2
ATOM      2  C   ILE A   1       9.730   5.835  49.257  0.00  0.00    +0.238 C 
ATOM      3  N   GLY A   2       9.022   5.774  50.379  0.00  0.00    -0.297 N 
ATOM      4  H   GLY A   2       7.989   5.664  50.330  0.00  0.00    +0.150 HD
ATOM      5  O   ILE A   1      10.955   6.012  49.255  0.00  0.00    -0.274 OA
BRANCH   3   6
ATOM      6  CA  GLY A   2       9.683   5.861  51.688  0.00  0.00    +0.163 C 
BRANCH   6   7
ATOM      7  C   GLY A   2       9.584   4.575  52.481  0.00  0.00    +0.229 C 
ATOM      8  O   GLY A   2       8.982   3.591  52.031  0.00  0.00    -0.286 OA
ENDBRANCH   6   7
ENDBRANCH   3   6
ENDBRANCH   1   2
BRANCH   1   9
ATOM      9  N   ILE A   1       9.488   6.639  46.944  0.00  0.00    -0.238 NA
ATOM     10  H   ILE A   1      10.040   6.265  46.146  0.00  0.00    +0.142 HD
ENDBRANCH   1   9
BRANCH   1  11
ATOM     11  CB  ILE A   1       8.981   4.227  47.423  0.00  0.00    +0.025 C 
ATOM     12  CG2 ILE A   1      10.410   3.638  47.451  0.00  0.00    +0.002 C 
BRANCH  11  13
ATOM     13  CG1 ILE A   1       8.011   3.347  48.219  0.00  0.00    +0.002 C 
ATOM     14  CD1 ILE A   1       6.566   3.717  48.058  0.00  0.00    +0.000 C 
ENDBRANCH  11  13
ENDBRANCH   1  11
TORSDOF 6
REMARK  Name = ../refined-set-2016/3i60/3i60_pocket.pdb
REMARK  233 active torsions:
REMARK  status: ('A' for Active; 'I' for Inactive)
REMARK    1  A    between atoms: _1  and  _3
REMARK    2  A    between atoms: _3  and  _4
REMARK    3  A    between atoms: _3  and  _6
REMARK    4  A    between atoms: _6  and  _7
REMARK    5  A    between atoms: _9  and  _11
REMARK    6  A    between atoms: _11  and  _12
REMARK    7  A    between atoms: _11  and  _14
REMARK    8  A    between atoms: _14  and  _15
REMARK    9  A    between atoms: _20  and  _21
REMARK   10  A    between atoms: _23  and  _25
REMARK   11  A    between atoms: _25  and  _26
REMARK   12  A    between atoms: _25  and  _28
REMARK   13  A    between atoms: _28  and  _29
REMARK   14  A    between atoms: _32  and  _34
REMARK   15  A    between atoms: _34  and  _35
REMARK   16  A    between atoms: _37  and  _39
REMARK   17  A    between atoms: _39  and  _40
REMARK   18  A    between atoms: _39  and  _42
REMARK   19  A    between atoms: _42  and  _43
REMARK   20  A    between atoms: _43  and  _44
REMARK   21  A    between atoms: _47  and  _49
REMARK   22  A    between atoms: _49  and  _50
REMARK   23  A    between atoms: _52  and  _54
REMARK   24  A    between atoms: _54  and  _55
REMARK   25  A    between atoms: _58  and  _60
REMARK   26  A    between atoms: _60  and  _61
REMARK   27  A    between atoms: _60  and  _63
REMARK   28  A    between atoms: _63  and  _64
REMARK   29  A    between atoms: _69  and  _70
REMARK   30  A    between atoms: _72  and  _74
REMARK   31  A    between atoms: _74  and  _75
REMARK   32  A    between atoms: _77  and  _79
REMARK   33  A    between atoms: _79  and  _80
REMARK   34  A    between atoms: _79  and  _82
REMARK   35  A    between atoms: _82  and  _83
REMARK   36  A    between atoms: _83  and  _84
REMARK   37  A    between atoms: _86  and  _88
REMARK   38  A    between atoms: _88  and  _89
REMARK   39  A    between atoms: _88  and  _91
REMARK   40  A    between atoms: _94  and  _96
REMARK   41  A    between atoms: _96  and  _97
REMARK   42  A    between atoms: _96  and  _99
REMARK   43  A    between atoms: _101  and  _103
REMARK   44  A    between atoms: _103  and  _104
REMARK   45  A    between atoms: _103  and  _106
REMARK   46  A    between atoms: _106  and  _107
REMARK   47  A    between atoms: _109  and  _111
REMARK   48  A    between atoms: _111  and  _112
REMARK   49  A    between atoms: _111  and  _114
REMARK   50  A    between atoms: _114  and  _115
REMARK   51  A    between atoms: _115  and  _116
REMARK   52  A    between atoms: _116  and  _117
REMARK   53  A    between atoms: _126  and  _128
REMARK   54  A    between atoms: _128  and  _129
REMARK   55  A    between atoms: _128  and  _131
REMARK   56  A    between atoms: _134  and  _136
REMARK   57  A    between atoms: _136  and  _137
REMARK   58  A    between atoms: _140  and  _142
REMARK   59  A    between atoms: _142  and  _143
REMARK   60  A    between atoms: _142  and  _145
REMARK   61  A    between atoms: _145  and  _146
REMARK   62  A    between atoms: _149  and  _151
REMARK   63  A    between atoms: _151  and  _152
REMARK   64  A    between atoms: _151  and  _154
REMARK   65  A    between atoms: _154  and  _155
REMARK   66  A    between atoms: _155  and  _156
REMARK   67  A    between atoms: _156  and  _157
REMARK   68  A    between atoms: _157  and  _158
REMARK   69  A    between atoms: _162  and  _164
REMARK   70  A    between atoms: _164  and  _165
REMARK   71  A    between atoms: _164  and  _167
REMARK   72  A    between atoms: _167  and  _168
REMARK   73  A    between atoms: _168  and  _169
REMARK   74  A    between atoms: _169  and  _170
REMARK   75  A    between atoms: _170  and  _171
REMARK   76  A    between atoms: _175  and  _177
REMARK   77  A    between atoms: _177  and  _178
REMARK   78  A    between atoms: _177  and  _180
REMARK   79  A    between atoms: _180  and  _181
REMARK   80  A    between atoms: _184  and  _186
REMARK   81  A    between atoms: _186  and  _187
REMARK   82  A    between atoms: _186  and  _189
REMARK   83  A    between atoms: _189  and  _190
REMARK   84  A    between atoms: _192  and  _194
REMARK   85  A    between atoms: _194  and  _195
REMARK   86  A    between atoms: _194  and  _197
REMARK   87  A    between atoms: _197  and  _198
REMARK   88  A    between atoms: _198  and  _199
REMARK   89  A    between atoms: _199  and  _200
REMARK   90  A    between atoms: _209  and  _211
REMARK   91  A    between atoms: _211  and  _212
REMARK   92  A    between atoms: _211  and  _214
REMARK   93  A    between atoms: _214  and  _215
REMARK   94  A    between atoms: _218  and  _220
REMARK   95  A    between atoms: _220  and  _221
REMARK   96  A    between atoms: _220  and  _223
REMARK   97  A    between atoms: _223  and  _224
REMARK   98  A    between atoms: _224  and  _225
REMARK   99  A    between atoms: _228  and  _230
REMARK  100  A    between atoms: _230  and  _231
REMARK  101  A    between atoms: _230  and  _233
REMARK  102  A    between atoms: _233  and  _234
REMARK  103  A    between atoms: _237  and  _239
REMARK  104  A    between atoms: _239  and  _240
REMARK  105  A    between atoms: _239  and  _242
REMARK  106  A    between atoms: _242  and  _243
REMARK  107  A    between atoms: _246  and  _248
REMARK  108  A    between atoms: _248  and  _249
REMARK  109  A    between atoms: _251  and  _253
REMARK  110  A    between atoms: _253  and  _254
REMARK  111  A    between atoms: _253  and  _256
REMARK  112  A    between atoms: _259  and  _261
REMARK  113  A    between atoms: _261  and  _262
REMARK  114  A    between atoms: _261  and  _264
REMARK  115  A    between atoms: _264  and  _265
REMARK  116  A    between atoms: _268  and  _270
REMARK  117  A    between atoms: _270  and  _271
REMARK  118  A    between atoms: _270  and  _273
REMARK  119  A    between atoms: _276  and  _278
REMARK  120  A    between atoms: _278  and  _279
REMARK  121  A    between atoms: _278  and  _281
REMARK  122  A    between atoms: _281  and  _282
REMARK  123  A    between atoms: _282  and  _283
REMARK  124  A    between atoms: _288  and  _290
REMARK  125  A    between atoms: _290  and  _291
REMARK  126  A    between atoms: _290  and  _293
REMARK  127  A    between atoms: _293  and  _294
REMARK  128  A    between atoms: _297  and  _299
REMARK  129  A    between atoms: _299  and  _300
REMARK  130  A    between atoms: _299  and  _302
REMARK  131  A    between atoms: _302  and  _303
REMARK  132  A    between atoms: _306  and  _308
REMARK  133  A    between atoms: _308  and  _309
REMARK  134  A    between atoms: _308  and  _311
REMARK  135  A    between atoms: _311  and  _312
REMARK  136  A    between atoms: _312  and  _313
REMARK  137  A    between atoms: _315  and  _317
REMARK  138  A    between atoms: _317  and  _318
REMARK  139  A    between atoms: _317  and  _320
REMARK  140  A    between atoms: _320  and  _321
REMARK  141  A    between atoms: _321  and  _322
REMARK  142  A    between atoms: _325  and  _327
REMARK  143  A    between atoms: _327  and  _328
REMARK  144  A    between atoms: _327  and  _330
REMARK  145  A    between atoms: _330  and  _331
REMARK  146  A    between atoms: _334  and  _336
REMARK  147  A    between atoms: _336  and  _337
REMARK  148  A    between atoms: _336  and  _339
REMARK  149  A    between atoms: _339  and  _340
REMARK  150  A    between atoms: _343  and  _345
REMARK  151  A    between atoms: _345  and  _346
REMARK  152  A    between atoms: _345  and  _348
REMARK  153  A    between atoms: _348  and  _349
REMARK  154  A    between atoms: _352  and  _354
REMARK  155  A    between atoms: _354  and  _355
REMARK  156  A    between atoms: _354  and  _357
REMARK  157  A    between atoms: _357  and  _358
REMARK  158  A    between atoms: _363  and  _364
REMARK  159  A    between atoms: _366  and  _368
REMARK  160  A    between atoms: _368  and  _369
REMARK  161  A    between atoms: _368  and  _371
REMARK  162  A    between atoms: _371  and  _372
REMARK  163  A    between atoms: _372  and  _373
REMARK  164  A    between atoms: _373  and  _374
REMARK  165  A    between atoms: _374  and  _375
REMARK  166  A    between atoms: _379  and  _381
REMARK  167  A    between atoms: _381  and  _382
REMARK  168  A    between atoms: _381  and  _384
REMARK  169  A    between atoms: _384  and  _385
REMARK  170  A    between atoms: _388  and  _390
REMARK  171  A    between atoms: _390  and  _391
REMARK  172  A    between atoms: _390  and  _393
REMARK  173  A    between atoms: _393  and  _394
REMARK  174  A    between atoms: _397  and  _399
REMARK  175  A    between atoms: _399  and  _400
REMARK  176  A    between atoms: _399  and  _402
REMARK  177  A    between atoms: _402  and  _403
REMARK  178  A    between atoms: _403  and  _404
REMARK  179  A    between atoms: _404  and  _405
REMARK  180  A    between atoms: _405  and  _406
REMARK  181  A    between atoms: _411  and  _412
REMARK  182  A    between atoms: _417  and  _419
REMARK  183  A    between atoms: _419  and  _420
REMARK  184  A    between atoms: _419  and  _422
REMARK  185  A    between atoms: _422  and  _423
REMARK  186  A    between atoms: _425  and  _427
REMARK  187  A    between atoms: _427  and  _428
REMARK  188  A    between atoms: _427  and  _430
REMARK  189  A    between atoms: _430  and  _431
REMARK  190  A    between atoms: _436  and  _438
REMARK  191  A    between atoms: _438  and  _439
REMARK  192  A    between atoms: _438  and  _441
REMARK  193  A    between atoms: _441  and  _442
REMARK  194  A    between atoms: _445  and  _447
REMARK  195  A    between atoms: _447  and  _448
REMARK  196  A    between atoms: _447  and  _450
REMARK  197  A    between atoms: _450  and  _451
REMARK  198  A    between atoms: _454  and  _456
REMARK  199  A    between atoms: _456  and  _457
REMARK  200  A    between atoms: _456  and  _459
REMARK  201  A    between atoms: _459  and  _460
REMARK  202  A    between atoms: _463  and  _465
REMARK  203  A    between atoms: _465  and  _466
REMARK  204  A    between atoms: _465  and  _468
REMARK  205  A    between atoms: _468  and  _469
REMARK  206  A    between atoms: _469  and  _470
REMARK  207  A    between atoms: _470  and  _471
REMARK  208  A    between atoms: _471  and  _472
REMARK  209  A    between atoms: _476  and  _478
REMARK  210  A    between atoms: _478  and  _479
REMARK  211  A    between atoms: _478  and  _481
REMARK  212  A    between atoms: _481  and  _482
REMARK  213  A    between atoms: _485  and  _487
REMARK  214  A    between atoms: _487  and  _488
REMARK  215  A    between atoms: _487  and  _490
REMARK  216  A    between atoms: _492  and  _494
REMARK  217  A    between atoms: _494  and  _495
REMARK  218  A    between atoms: _494  and  _497
REMARK  219  A    between atoms: _497  and  _498
REMARK  220  A    between atoms: _501  and  _503
REMARK  221  A    between atoms: _503  and  _504
REMARK  222  A    between atoms: _503  and  _506
REMARK  223  A    between atoms: _506  and  _507
REMARK  224  A    between atoms: _513  and  _515
REMARK  225  A    between atoms: _515  and  _516
REMARK  226  A    between atoms: _518  and  _520
REMARK  227  A    between atoms: _520  and  _521
REMARK  228  A    between atoms: _520  and  _523
REMARK  229  A    between atoms: _523  and  _524
REMARK  230  A    between atoms: _527  and  _529
REMARK  231  A    between atoms: _529  and  _530
REMARK  232  A    between atoms: _529  and  _532
REMARK  233  A    between atoms: _532  and  _533
REMARK                            x       y       z     vdW  Elec       q    Type
REMARK                         _______ _______ _______ _____ _____    ______ ____
ROOT
ATOM      1  CA  VAL A   1      14.691  -7.829  56.992  0.00  0.00    +0.133 C 
ENDROOT
BRANCH   1   2
ATOM      2  CB  VAL A   1      15.819  -6.767  56.847  0.00  0.00    +0.023 C 
ATOM      3  CG2 VAL A   1      17.013  -7.117  57.747  0.00  0.00    +0.002 C 
ATOM      4  CG1 VAL A   1      15.312  -5.372  57.159  0.00  0.00    +0.002 C 
ENDBRANCH   1   2
BRANCH   1   5
ATOM      5  N   VAL A   1      15.155  -9.165  56.623  0.00  0.00    -0.239 NA
ATOM      6  H   VAL A   1      15.316  -9.386  55.620  0.00  0.00    +0.142 HD
ENDBRANCH   1   5
BRANCH   1   7
ATOM      7  C   VAL A   1      13.438  -7.467  56.170  0.00  0.00    +0.224 C 
ATOM      8  O   VAL A   1      13.393  -7.666  54.940  0.00  0.00    -0.287 OA
ENDBRANCH   1   7
TORSDOF 3
REMARK  Name = ../refined-set-2016/3i60/3i60_pocket.pdb
REMARK  233 active torsions:
REMARK  status: ('A' for Active; 'I' for Inactive)
REMARK    1  A    between atoms: _1  and  _3
REMARK    2  A    between atoms: _3  and  _4
REMARK    3  A    between atoms: _3  and  _6
REMARK    4  A    between atoms: _6  and  _7
REMARK    5  A    between atoms: _9  and  _11
REMARK    6  A    between atoms: _11  and  _12
REMARK    7  A    between atoms: _11  and  _14
REMARK    8  A    between atoms: _14  and  _15
REMARK    9  A    between atoms: _20  and  _21
REMARK   10  A    between atoms: _23  and  _25
REMARK   11  A    between atoms: _25  and  _26
REMARK   12  A    between atoms: _25  and  _28
REMARK   13  A    between atoms: _28  and  _29
REMARK   14  A    between atoms: _32  and  _34
REMARK   15  A    between atoms: _34  and  _35
REMARK   16  A    between atoms: _37  and  _39
REMARK   17  A    between atoms: _39  and  _40
REMARK   18  A    between atoms: _39  and  _42
REMARK   19  A    between atoms: _42  and  _43
REMARK   20  A    between atoms: _43  and  _44
REMARK   21  A    between atoms: _47  and  _49
REMARK   22  A    between atoms: _49  and  _50
REMARK   23  A    between atoms: _52  and  _54
REMARK   24  A    between atoms: _54  and  _55
REMARK   25  A    between atoms: _58  and  _60
REMARK   26  A    between atoms: _60  and  _61
REMARK   27  A    between atoms: _60  and  _63
REMARK   28  A    between atoms: _63  and  _64
REMARK   29  A    between atoms: _69  and  _70
REMARK   30  A    between atoms: _72  and  _74
REMARK   31  A    between atoms: _74  and  _75
REMARK   32  A    between atoms: _77  and  _79
REMARK   33  A    between atoms: _79  and  _80
REMARK   34  A    between atoms: _79  and  _82
REMARK   35  A    between atoms: _82  and  _83
REMARK   36  A    between atoms: _83  and  _84
REMARK   37  A    between atoms: _86  and  _88
REMARK   38  A    between atoms: _88  and  _89
REMARK   39  A    between atoms: _88  and  _91
REMARK   40  A    between atoms: _94  and  _96
REMARK   41  A    between atoms: _96  and  _97
REMARK   42  A    between atoms: _96  and  _99
REMARK   43  A    between atoms: _101  and  _103
REMARK   44  A    between atoms: _103  and  _104
REMARK   45  A    between atoms: _103  and  _106
REMARK   46  A    between atoms: _106  and  _107
REMARK   47  A    between atoms: _109  and  _111
REMARK   48  A    between atoms: _111  and  _112
REMARK   49  A    between atoms: _111  and  _114
REMARK   50  A    between atoms: _114  and  _115
REMARK   51  A    between atoms: _115  and  _116
REMARK   52  A    between atoms: _116  and  _117
REMARK   53  A    between atoms: _126  and  _128
REMARK   54  A    between atoms: _128  and  _129
REMARK   55  A    between atoms: _128  and  _131
REMARK   56  A    between atoms: _134  and  _136
REMARK   57  A    between atoms: _136  and  _137
REMARK   58  A    between atoms: _140  and  _142
REMARK   59  A    between atoms: _142  and  _143
REMARK   60  A    between atoms: _142  and  _145
REMARK   61  A    between atoms: _145  and  _146
REMARK   62  A    between atoms: _149  and  _151
REMARK   63  A    between atoms: _151  and  _152
REMARK   64  A    between atoms: _151  and  _154
REMARK   65  A    between atoms: _154  and  _155
REMARK   66  A    between atoms: _155  and  _156
REMARK   67  A    between atoms: _156  and  _157
REMARK   68  A    between atoms: _157  and  _158
REMARK   69  A    between atoms: _162  and  _164
REMARK   70  A    between atoms: _164  and  _165
REMARK   71  A    between atoms: _164  and  _167
REMARK   72  A    between atoms: _167  and  _168
REMARK   73  A    between atoms: _168  and  _169
REMARK   74  A    between atoms: _169  and  _170
REMARK   75  A    between atoms: _170  and  _171
REMARK   76  A    between atoms: _175  and  _177
REMARK   77  A    between atoms: _177  and  _178
REMARK   78  A    between atoms: _177  and  _180
REMARK   79  A    between atoms: _180  and  _181
REMARK   80  A    between atoms: _184  and  _186
REMARK   81  A    between atoms: _186  and  _187
REMARK   82  A    between atoms: _186  and  _189
REMARK   83  A    between atoms: _189  and  _190
REMARK   84  A    between atoms: _192  and  _194
REMARK   85  A    between atoms: _194  and  _195
REMARK   86  A    between atoms: _194  and  _197
REMARK   87  A    between atoms: _197  and  _198
REMARK   88  A    between atoms: _198  and  _199
REMARK   89  A    between atoms: _199  and  _200
REMARK   90  A    between atoms: _209  and  _211
REMARK   91  A    between atoms: _211  and  _212
REMARK   92  A    between atoms: _211  and  _214
REMARK   93  A    between atoms: _214  and  _215
REMARK   94  A    between atoms: _218  and  _220
REMARK   95  A    between atoms: _220  and  _221
REMARK   96  A    between atoms: _220  and  _223
REMARK   97  A    between atoms: _223  and  _224
REMARK   98  A    between atoms: _224  and  _225
REMARK   99  A    between atoms: _228  and  _230
REMARK  100  A    between atoms: _230  and  _231
REMARK  101  A    between atoms: _230  and  _233
REMARK  102  A    between atoms: _233  and  _234
REMARK  103  A    between atoms: _237  and  _239
REMARK  104  A    between atoms: _239  and  _240
REMARK  105  A    between atoms: _239  and  _242
REMARK  106  A    between atoms: _242  and  _243
REMARK  107  A    between atoms: _246  and  _248
REMARK  108  A    between atoms: _248  and  _249
REMARK  109  A    between atoms: _251  and  _253
REMARK  110  A    between atoms: _253  and  _254
REMARK  111  A    between atoms: _253  and  _256
REMARK  112  A    between atoms: _259  and  _261
REMARK  113  A    between atoms: _261  and  _262
REMARK  114  A    between atoms: _261  and  _264
REMARK  115  A    between atoms: _264  and  _265
REMARK  116  A    between atoms: _268  and  _270
REMARK  117  A    between atoms: _270  and  _271
REMARK  118  A    between atoms: _270  and  _273
REMARK  119  A    between atoms: _276  and  _278
REMARK  120  A    between atoms: _278  and  _279
REMARK  121  A    between atoms: _278  and  _281
REMARK  122  A    between atoms: _281  and  _282
REMARK  123  A    between atoms: _282  and  _283
REMARK  124  A    between atoms: _288  and  _290
REMARK  125  A    between atoms: _290  and  _291
REMARK  126  A    between atoms: _290  and  _293
REMARK  127  A    between atoms: _293  and  _294
REMARK  128  A    between atoms: _297  and  _299
REMARK  129  A    between atoms: _299  and  _300
REMARK  130  A    between atoms: _299  and  _302
REMARK  131  A    between atoms: _302  and  _303
REMARK  132  A    between atoms: _306  and  _308
REMARK  133  A    between atoms: _308  and  _309
REMARK  134  A    between atoms: _308  and  _311
REMARK  135  A    between atoms: _311  and  _312
REMARK  136  A    between atoms: _312  and  _313
REMARK  137  A    between atoms: _315  and  _317
REMARK  138  A    between atoms: _317  and  _318
REMARK  139  A    between atoms: _317  and  _320
REMARK  140  A    between atoms: _320  and  _321
REMARK  141  A    between atoms: _321  and  _322
REMARK  142  A    between atoms: _325  and  _327
REMARK  143  A    between atoms: _327  and  _328
REMARK  144  A    between atoms: _327  and  _330
REMARK  145  A    between atoms: _330  and  _331
REMARK  146  A    between atoms: _334  and  _336
REMARK  147  A    between atoms: _336  and  _337
REMARK  148  A    between atoms: _336  and  _339
REMARK  149  A    between atoms: _339  and  _340
REMARK  150  A    between atoms: _343  and  _345
REMARK  151  A    between atoms: _345  and  _346
REMARK  152  A    between atoms: _345  and  _348
REMARK  153  A    between atoms: _348  and  _349
REMARK  154  A    between atoms: _352  and  _354
REMARK  155  A    between atoms: _354  and  _355
REMARK  156  A    between atoms: _354  and  _357
REMARK  157  A    between atoms: _357  and  _358
REMARK  158  A    between atoms: _363  and  _364
REMARK  159  A    between atoms: _366  and  _368
REMARK  160  A    between atoms: _368  and  _369
REMARK  161  A    between atoms: _368  and  _371
REMARK  162  A    between atoms: _371  and  _372
REMARK  163  A    between atoms: _372  and  _373
REMARK  164  A    between atoms: _373  and  _374
REMARK  165  A    between atoms: _374  and  _375
REMARK  166  A    between atoms: _379  and  _381
REMARK  167  A    between atoms: _381  and  _382
REMARK  168  A    between atoms: _381  and  _384
REMARK  169  A    between atoms: _384  and  _385
REMARK  170  A    between atoms: _388  and  _390
REMARK  171  A    between atoms: _390  and  _391
REMARK  172  A    between atoms: _390  and  _393
REMARK  173  A    between atoms: _393  and  _394
REMARK  174  A    between atoms: _397  and  _399
REMARK  175  A    between atoms: _399  and  _400
REMARK  176  A    between atoms: _399  and  _402
REMARK  177  A    between atoms: _402  and  _403
REMARK  178  A    between atoms: _403  and  _404
REMARK  179  A    between atoms: _404  and  _405
REMARK  180  A    between atoms: _405  and  _406
REMARK  181  A    between atoms: _411  and  _412
REMARK  182  A    between atoms: _417  and  _419
REMARK  183  A    between atoms: _419  and  _420
REMARK  184  A    between atoms: _419  and  _422
REMARK  185  A    between atoms: _422  and  _423
REMARK  186  A    between atoms: _425  and  _427
REMARK  187  A    between atoms: _427  and  _428
REMARK  188  A    between atoms: _427  and  _430
REMARK  189  A    between atoms: _430  and  _431
REMARK  190  A    between atoms: _436  and  _438
REMARK  191  A    between atoms: _438  and  _439
REMARK  192  A    between atoms: _438  and  _441
REMARK  193  A    between atoms: _441  and  _442
REMARK  194  A    between atoms: _445  and  _447
REMARK  195  A    between atoms: _447  and  _448
REMARK  196  A    between atoms: _447  and  _450
REMARK  197  A    between atoms: _450  and  _451
REMARK  198  A    between atoms: _454  and  _456
REMARK  199  A    between atoms: _456  and  _457
REMARK  200  A    between atoms: _456  and  _459
REMARK  201  A    between atoms: _459  and  _460
REMARK  202  A    between atoms: _463  and  _465
REMARK  203  A    between atoms: _465  and  _466
REMARK  204  A    between atoms: _465  and  _468
REMARK  205  A    between atoms: _468  and  _469
REMARK  206  A    between atoms: _469  and  _470
REMARK  207  A    between atoms: _470  and  _471
REMARK  208  A    between atoms: _471  and  _472
REMARK  209  A    between atoms: _476  and  _478
REMARK  210  A    between atoms: _478  and  _479
REMARK  211  A    between atoms: _478  and  _481
REMARK  212  A    between atoms: _481  and  _482
REMARK  213  A    between atoms: _485  and  _487
REMARK  214  A    between atoms: _487  and  _488
REMARK  215  A    between atoms: _487  and  _490
REMARK  216  A    between atoms: _492  and  _494
REMARK  217  A    between atoms: _494  and  _495
REMARK  218  A    between atoms: _494  and  _497
REMARK  219  A    between atoms: _497  and  _498
REMARK  220  A    between atoms: _501  and  _503
REMARK  221  A    between atoms: _503  and  _504
REMARK  222  A    between atoms: _503  and  _506
REMARK  223  A    between atoms: _506  and  _507
REMARK  224  A    between atoms: _513  and  _515
REMARK  225  A    between atoms: _515  and  _516
REMARK  226  A    between atoms: _518  and  _520
REMARK  227  A    between atoms: _520  and  _521
REMARK  228  A    between atoms: _520  and  _523
REMARK  229  A    between atoms: _523  and  _524
REMARK  230  A    between atoms: _527  and  _529
REMARK  231  A    between atoms: _529  and  _530
REMARK  232  A    between atoms: _529  and  _532
REMARK  233  A    between atoms: _532  and  _533
REMARK                            x       y       z     vdW  Elec       q    Type
REMARK                         _______ _______ _______ _____ _____    ______ ____
ROOT
ATOM      1  C   GLU A   7      -0.819  -0.791  41.579  0.00  0.00    +0.241 C 
ATOM      2  O   GLU A   7      -1.187  -1.963  41.441  0.00  0.00    -0.273 OA
ATOM      3  N   THR A   8       0.218  -0.270  40.922  0.00  0.00    -0.295 N 
ATOM      4  H   THR A   8       0.525   0.697  41.153  0.00  0.00    +0.150 HD
ENDROOT
BRANCH   1   5
ATOM      5  CA  GLU A   7      -1.549   0.138  42.555  0.00  0.00    +0.149 C 
BRANCH   5   8
ATOM      6  C   MET A   6       0.150   0.449  44.297  0.00  0.00    +0.241 C 
ATOM      7  O   MET A   6       0.203  -0.763  44.543  0.00  0.00    -0.273 OA
ATOM      8  N   GLU A   7      -0.634   0.967  43.352  0.00  0.00    -0.297 N 
ATOM      9  H   GLU A   7      -0.597   1.991  43.173  0.00  0.00    +0.150 HD
BRANCH   6  10
ATOM     10  CA  MET A   6       0.990   1.442  45.099  0.00  0.00    +0.149 C 
BRANCH  10  13
ATOM     11  C   LEU A   5       0.836   1.220  47.508  0.00  0.00    +0.241 C 
ATOM     12  O   LEU A   5       0.032   2.159  47.600  0.00  0.00    -0.273 OA
ATOM     13  N   MET A   6       1.385   0.842  46.365  0.00  0.00    -0.297 N 
ATOM     14  H   MET A   6       2.114   0.100  46.371  0.00  0.00    +0.150 HD
BRANCH  11  15
ATOM     15  CA  LEU A   5       1.257   0.431  48.733  0.00  0.00    +0.149 C 
BRANCH  15  17
ATOM     16  C   ASP A   4       2.935   1.794  49.846  0.00  0.00    +0.241 C 
ATOM     17  N   LEU A   5       1.682   1.347  49.782  0.00  0.00    -0.297 N 
ATOM     18  H   LEU A   5       0.993   1.659  50.496  0.00  0.00    +0.150 HD
ATOM     19  O   ASP A   4       3.814   1.450  49.065  0.00  0.00    -0.273 OA
BRANCH  16  20
ATOM     20  CA  ASP A   4       3.259   2.745  50.978  0.00  0.00    +0.160 C 
BRANCH  20  23
ATOM     21  C   GLN A   3       4.831   1.188  51.992  0.00  0.00    +0.241 C 
ATOM     22  O   GLN A   3       3.992   0.287  52.004  0.00  0.00    -0.273 OA
ATOM     23  N   ASP A   4       4.555   2.411  51.560  0.00  0.00    -0.297 N 
ATOM     24  H   ASP A   4       5.281   3.151  51.638  0.00  0.00    +0.150 HD
BRANCH  21  25
ATOM     25  CA  GLN A   3       6.265   0.943  52.477  0.00  0.00    +0.149 C 
BRANCH  25  28
ATOM     26  C   VAL A   2       7.076  -0.238  54.462  0.00  0.00    +0.241 C 
ATOM     27  O   VAL A   2       7.647   0.760  54.914  0.00  0.00    -0.273 OA
ATOM     28  N   GLN A   3       6.319  -0.213  53.368  0.00  0.00    -0.297 N 
ATOM     29  H   GLN A   3       5.744  -1.049  53.139  0.00  0.00    +0.150 HD
BRANCH  26  30
ATOM     30  CA  VAL A   2       7.210  -1.601  55.156  0.00  0.00    +0.148 C 
BRANCH  30  32
ATOM     31  C   ILE A   1       9.310  -2.739  54.484  0.00  0.00    +0.238 C 
ATOM     32  N   VAL A   2       8.624  -1.957  55.333  0.00  0.00    -0.297 N 
ATOM     33  H   VAL A   2       9.123  -1.581  56.165  0.00  0.00    +0.150 HD
ATOM     34  O   ILE A   1       8.858  -3.161  53.431  0.00  0.00    -0.274 OA
BRANCH  31  35
ATOM     35  CA  ILE A   1      10.743  -3.087  54.883  0.00  0.00    +0.145 C 
BRANCH  35  36
ATOM     36  N   ILE A   1      10.880  -4.519  55.042  0.00  0.00    -0.238 NA
ATOM     37  H   ILE A   1      10.903  -5.120  54.194  0.00  0.00    +0.142 HD
ENDBRANCH  35  36
BRANCH  35  38
ATOM     38  CB  ILE A   1      11.747  -2.578  53.837  0.00  0.00    +0.025 C 
ATOM     39  CG2 ILE A   1      11.537  -1.105  53.538  0.00  0.00    +0.002 C 
BRANCH  38  40
ATOM     40  CG1 ILE A   1      13.175  -2.811  54.329  0.00  0.00    +0.002 C 
ATOM     41  CD1 ILE A   1      14.212  -2.638  53.243  0.00  0.00    +0.000 C 
ENDBRANCH  38  40
ENDBRANCH  35  38
ENDBRANCH  31  35
ENDBRANCH  30  32
BRANCH  30  42
ATOM     42  CB  VAL A   2       6.425  -1.601  56.510  0.00  0.00    +0.027 C 
ATOM     43  CG2 VAL A   2       6.632  -2.923  57.251  0.00  0.00    +0.002 C 
ATOM     44  CG1 VAL A   2       4.917  -1.336  56.283  0.00  0.00    +0.002 C 
ENDBRANCH  30  42
ENDBRANCH  26  30
ENDBRANCH  25  28
BRANCH  25  45
ATOM     45  CB  GLN A   3       7.195   0.735  51.260  0.00  0.00    +0.039 C 
BRANCH  45  46
ATOM     46  CG  GLN A   3       8.657   0.464  51.588  0.00  0.00    +0.087 C 
BRANCH  46  47
ATOM     47  CD  GLN A   3       9.533   0.407  50.355  0.00  0.00    +0.219 C 
ATOM     48  NE2 GLN A   3      10.288   1.481  50.105  0.00  0.00    -0.329 N 
ATOM     49 HE21 GLN A   3      10.248   2.304  50.740  0.00  0.00    +0.145 HD
ATOM     50 HE22 GLN A   3      10.916   1.494  49.276  0.00  0.00    +0.145 HD
ATOM     51  OE1 GLN A   3       9.542  -0.593  49.637  0.00  0.00    -0.275 OA
ENDBRANCH  46  47
ENDBRANCH  45  46
ENDBRANCH  25  45
ENDBRANCH  21  25
ENDBRANCH  20  23
BRANCH  20  52
ATOM     52  CB  ASP A   4       3.271   4.176  50.464  0.00  0.00    +0.143 C 
BRANCH  52  53
ATOM     53  CG  ASP A   4       3.268   5.194  51.588  0.00  0.00    +0.367 C 
ATOM     54  OD2 ASP A   4       2.834   4.847  52.701  0.00  0.00    -0.246 OA
ATOM     55  OD1 ASP A   4       3.691   6.342  51.354  0.00  0.00    -0.246 OA
ENDBRANCH  52  53
ENDBRANCH  20  52
ENDBRANCH  16  20
ENDBRANCH  15  17
BRANCH  15  56
ATOM     56  CB  LEU A   5       0.108  -0.469  49.207  0.00  0.00    +0.029 C 
BRANCH  56  57
ATOM     57  CG  LEU A   5      -0.413  -1.524  48.227  0.00  0.00    +0.002 C 
ATOM     58  CD2 LEU A   5      -1.634  -2.205  48.811  0.00  0.00    +0.000 C 
ATOM     59  CD1 LEU A   5       0.650  -2.559  47.862  0.00  0.00    +0.000 C 
ENDBRANCH  56  57
ENDBRANCH  15  56
ENDBRANCH  11  15
ENDBRANCH  10  13
BRANCH  10  60
ATOM     60  CB  MET A   6       2.221   1.901  44.313  0.00  0.00    +0.041 C 
BRANCH  60  61
ATOM     61  CG  MET A   6       3.117   2.879  45.069  0.00  0.00    +0.060 C 
BRANCH  61  62
ATOM     62  SD  MET A   6       2.301   4.455  45.470  0.00  0.00    -0.139 S 
ATOM     63  CE  MET A   6       2.306   5.253  43.848  0.00  0.00    +0.069 C 
ENDBRANCH  61  62
ENDBRANCH  60  61
ENDBRANCH  10  60
ENDBRANCH   6  10
ENDBRANCH   5   8
BRANCH   5  64
ATOM     64  CB  GLU A   7      -2.556   1.018  41.803  0.00  0.00    +0.041 C 
BRANCH  64  65
ATOM     65  CG  GLU A   7      -3.830   0.297  41.359  0.00  0.00    +0.116 C 
BRANCH  65  66
ATOM     66  CD  GLU A   7      -4.756  -0.077  42.530  0.00  0.00    +0.365 C 
ATOM     67  OE2 GLU A   7      -4.705   0.589  43.602  0.00  0.00    -0.246 OA
ATOM     68  OE1 GLU A   7      -5.549  -1.042  42.369  0.00  0.00    -0.246 OA
ENDBRANCH  65  66
ENDBRANCH  64  65
ENDBRANCH   5  64
ENDBRANCH   1   5
BRANCH   3  69
ATOM     69  CA  THR A   8       0.945  -1.017  39.879  0.00  0.00    +0.176 C 
BRANCH  69  70
ATOM     70  C   THR A   8       2.256  -0.321  39.513  0.00  0.00    +0.243 C 
ATOM     71  O   THR A   8       2.586   0.713  40.082  0.00  0.00    -0.273 OA
ATOM     72  N   ASP A   9       2.998  -0.886  38.567  0.00  0.00    -0.296 N 
ATOM     73  H   ASP A   9       2.715  -1.805  38.172  0.00  0.00    +0.150 HD
BRANCH  72  74
ATOM     74  CA  ASP A   9       4.202  -0.232  38.078  0.00  0.00    +0.160 C 
BRANCH  74  75
ATOM     75  C   ASP A   9       4.056   0.143  36.607  0.00  0.00    +0.241 C 
ATOM     76  N   LEU A  10       4.999   0.928  36.091  0.00  0.00    -0.297 N 
ATOM     77  H   LEU A  10       5.783   1.249  36.695  0.00  0.00    +0.150 HD
ATOM     78  O   ASP A   9       3.098  -0.270  35.954  0.00  0.00    -0.273 OA
BRANCH  76  79
ATOM     79  CA  LEU A  10       4.953   1.348  34.690  0.00  0.00    +0.149 C 
BRANCH  79  80
ATOM     80  C   LEU A  10       5.151   0.167  33.732  0.00  0.00    +0.241 C 
ATOM     81  N   TYR A  11       5.887  -0.844  34.187  0.00  0.00    -0.297 N 
ATOM     82  H   TYR A  11       6.290  -0.789  35.144  0.00  0.00    +0.150 HD
ATOM     83  O   LEU A  10       4.637   0.181  32.612  0.00  0.00    -0.273 OA
BRANCH  81  84
ATOM     84  CA  TYR A  11       6.139  -2.021  33.378  0.00  0.00    +0.153 C 
BRANCH  84  85
ATOM     85  C   TYR A  11       4.814  -2.634  32.957  0.00  0.00    +0.241 C 
ATOM     86  N   LYS A  12       3.948  -2.863  33.943  0.00  0.00    -0.297 N 
ATOM     87  H   LYS A  12       4.206  -2.559  34.903  0.00  0.00    +0.150 HD
ATOM     88  O   TYR A  11       4.583  -2.855  31.776  0.00  0.00    -0.273 OA
BRANCH  86  89
ATOM     89  CA  LYS A  12       2.663  -3.514  33.752  0.00  0.00    +0.149 C 
BRANCH  89  90
ATOM     90  C   LYS A  12       1.694  -2.632  32.983  0.00  0.00    +0.241 C 
ATOM     91  N   LEU A  13       1.677  -1.345  33.316  0.00  0.00    -0.298 N 
ATOM     92  H   LEU A  13       2.314  -1.005  34.065  0.00  0.00    +0.150 HD
ATOM     93  O   LYS A  12       0.967  -3.109  32.121  0.00  0.00    -0.273 OA
BRANCH  91  94
ATOM     94  CA  LEU A  13       0.787  -0.400  32.657  0.00  0.00    +0.137 C 
BRANCH  94  95
ATOM     95  C   LEU A  13       1.045  -0.342  31.153  0.00  0.00    +0.227 C 
ATOM     96  O   LEU A  13       0.102  -0.341  30.368  0.00  0.00    -0.286 OA
ENDBRANCH  94  95
BRANCH  94  97
ATOM     97  CB  LEU A  13       0.912   0.996  33.259  0.00  0.00    +0.028 C 
BRANCH  97  98
ATOM     98  CG  LEU A  13      -0.289   1.917  32.986  0.00  0.00    +0.002 C 
ATOM     99  CD2 LEU A  13      -1.409   1.650  33.990  0.00  0.00    +0.000 C 
ATOM    100  CD1 LEU A  13       0.094   3.381  33.029  0.00  0.00    +0.000 C 
ENDBRANCH  97  98
ENDBRANCH  94  97
ENDBRANCH  91  94
ENDBRANCH  89  90
BRANCH  89 101
ATOM    101  CB  LYS A  12       2.066  -3.901  35.112  0.00  0.00    +0.029 C 
BRANCH 101 102
ATOM    102  CG  LYS A  12       0.727  -4.670  35.022  0.00  0.00    +0.000 C 
BRANCH 102 103
ATOM    103  CD  LYS A  12       0.153  -5.050  36.397  0.00  0.00    -0.024 C 
BRANCH 103 104
ATOM    104  CE  LYS A  12       0.879  -6.252  37.027  0.00  0.00    -0.086 C 
BRANCH 104 105
ATOM    105  NZ  LYS A  12       2.241  -5.888  37.552  0.00  0.00    +0.380 N 
ATOM    106  HZ1 LYS A  12       2.145  -5.152  38.280  0.00  0.00    -0.089 HD
ATOM    107  HZ2 LYS A  12       2.688  -6.731  37.966  0.00  0.00    -0.089 HD
ATOM    108  HZ3 LYS A  12       2.828  -5.530  36.771  0.00  0.00    -0.089 HD
ENDBRANCH 104 105
ENDBRANCH 103 104
ENDBRANCH 102 103
ENDBRANCH 101 102
ENDBRANCH  89 101
ENDBRANCH  86  89
ENDBRANCH  84  85
BRANCH  84 109
ATOM    109  CB  TYR A  11       6.989  -3.043  34.145  0.00  0.00    +0.055 C 
BRANCH 109 110
ATOM    110  CG  TYR A  11       7.179  -4.357  33.420  0.00  0.00    -0.020 A 
ATOM    111  CD2 TYR A  11       6.559  -5.515  33.868  0.00  0.00    -0.001 A 
ATOM    112  CE2 TYR A  11       6.733  -6.729  33.199  0.00  0.00    +0.036 A 
ATOM    113  CZ  TYR A  11       7.542  -6.773  32.076  0.00  0.00    +0.134 A 
ATOM    114  CE1 TYR A  11       8.167  -5.638  31.615  0.00  0.00    +0.036 A 
ATOM    115  CD1 TYR A  11       7.989  -4.440  32.292  0.00  0.00    -0.001 A 
BRANCH 113 116
ATOM    116  OH  TYR A  11       7.731  -7.959  31.405  0.00  0.00    -0.506 OA
ATOM    117  HH  TYR A  11       8.333  -7.808  30.634  0.00  0.00    +0.292 HD
ENDBRANCH 113 116
ENDBRANCH 109 110
ENDBRANCH  84 109
ENDBRANCH  81  84
ENDBRANCH  79  80
BRANCH  79 118
ATOM    118  CB  LEU A  10       5.971   2.458  34.406  0.00  0.00    +0.029 C 
BRANCH 118 119
ATOM    119  CG  LEU A  10       5.834   3.238  33.095  0.00  0.00    +0.002 C 
ATOM    120  CD2 LEU A  10       6.942   4.247  33.015  0.00  0.00    +0.000 C 
ATOM    121  CD1 LEU A  10       4.487   3.938  32.964  0.00  0.00    +0.000 C 
ENDBRANCH 118 119
ENDBRANCH  79 118
ENDBRANCH  76  79
ENDBRANCH  74  75
BRANCH  74 122
ATOM    122  CB  ASP A   9       5.447  -1.093  38.332  0.00  0.00    +0.143 C 
BRANCH 122 123
ATOM    123  CG  ASP A   9       5.392  -2.429  37.628  0.00  0.00    +0.367 C 
ATOM    124  OD2 ASP A   9       5.984  -3.411  38.136  0.00  0.00    -0.246 OA
ATOM    125  OD1 ASP A   9       4.758  -2.499  36.558  0.00  0.00    -0.246 OA
ENDBRANCH 122 123
ENDBRANCH  74 122
ENDBRANCH  72  74
ENDBRANCH  69  70
BRANCH  69 126
ATOM    126  CB  THR A   8       0.061  -1.238  38.588  0.00  0.00    +0.137 C 
ATOM    127  CG2 THR A   8      -0.375   0.099  37.967  0.00  0.00    +0.034 C 
BRANCH 126 128
ATOM    128  OG1 THR A   8       0.796  -2.001  37.620  0.00  0.00    -0.382 OA
ATOM    129  HG1 THR A   8       1.620  -1.512  37.373  0.00  0.00    +0.210 HD
ENDBRANCH 126 128
ENDBRANCH  69 126
ENDBRANCH   3  69
TORSDOF 58
REMARK  Name = ../refined-set-2016/3i60/3i60_pocket.pdb
REMARK  233 active torsions:
REMARK  status: ('A' for Active; 'I' for Inactive)
REMARK    1  A    between atoms: _1  and  _3
REMARK    2  A    between atoms: _3  and  _4
REMARK    3  A    between atoms: _3  and  _6
REMARK    4  A    between atoms: _6  and  _7
REMARK    5  A    between atoms: _9  and  _11
REMARK    6  A    between atoms: _11  and  _12
REMARK    7  A    between atoms: _11  and  _14
REMARK    8  A    between atoms: _14  and  _15
REMARK    9  A    between atoms: _20  and  _21
REMARK   10  A    between atoms: _23  and  _25
REMARK   11  A    between atoms: _25  and  _26
REMARK   12  A    between atoms: _25  and  _28
REMARK   13  A    between atoms: _28  and  _29
REMARK   14  A    between atoms: _32  and  _34
REMARK   15  A    between atoms: _34  and  _35
REMARK   16  A    between atoms: _37  and  _39
REMARK   17  A    between atoms: _39  and  _40
REMARK   18  A    between atoms: _39  and  _42
REMARK   19  A    between atoms: _42  and  _43
REMARK   20  A    between atoms: _43  and  _44
REMARK   21  A    between atoms: _47  and  _49
REMARK   22  A    between atoms: _49  and  _50
REMARK   23  A    between atoms: _52  and  _54
REMARK   24  A    between atoms: _54  and  _55
REMARK   25  A    between atoms: _58  and  _60
REMARK   26  A    between atoms: _60  and  _61
REMARK   27  A    between atoms: _60  and  _63
REMARK   28  A    between atoms: _63  and  _64
REMARK   29  A    between atoms: _69  and  _70
REMARK   30  A    between atoms: _72  and  _74
REMARK   31  A    between atoms: _74  and  _75
REMARK   32  A    between atoms: _77  and  _79
REMARK   33  A    between atoms: _79  and  _80
REMARK   34  A    between atoms: _79  and  _82
REMARK   35  A    between atoms: _82  and  _83
REMARK   36  A    between atoms: _83  and  _84
REMARK   37  A    between atoms: _86  and  _88
REMARK   38  A    between atoms: _88  and  _89
REMARK   39  A    between atoms: _88  and  _91
REMARK   40  A    between atoms: _94  and  _96
REMARK   41  A    between atoms: _96  and  _97
REMARK   42  A    between atoms: _96  and  _99
REMARK   43  A    between atoms: _101  and  _103
REMARK   44  A    between atoms: _103  and  _104
REMARK   45  A    between atoms: _103  and  _106
REMARK   46  A    between atoms: _106  and  _107
REMARK   47  A    between atoms: _109  and  _111
REMARK   48  A    between atoms: _111  and  _112
REMARK   49  A    between atoms: _111  and  _114
REMARK   50  A    between atoms: _114  and  _115
REMARK   51  A    between atoms: _115  and  _116
REMARK   52  A    between atoms: _116  and  _117
REMARK   53  A    between atoms: _126  and  _128
REMARK   54  A    between atoms: _128  and  _129
REMARK   55  A    between atoms: _128  and  _131
REMARK   56  A    between atoms: _134  and  _136
REMARK   57  A    between atoms: _136  and  _137
REMARK   58  A    between atoms: _140  and  _142
REMARK   59  A    between atoms: _142  and  _143
REMARK   60  A    between atoms: _142  and  _145
REMARK   61  A    between atoms: _145  and  _146
REMARK   62  A    between atoms: _149  and  _151
REMARK   63  A    between atoms: _151  and  _152
REMARK   64  A    between atoms: _151  and  _154
REMARK   65  A    between atoms: _154  and  _155
REMARK   66  A    between atoms: _155  and  _156
REMARK   67  A    between atoms: _156  and  _157
REMARK   68  A    between atoms: _157  and  _158
REMARK   69  A    between atoms: _162  and  _164
REMARK   70  A    between atoms: _164  and  _165
REMARK   71  A    between atoms: _164  and  _167
REMARK   72  A    between atoms: _167  and  _168
REMARK   73  A    between atoms: _168  and  _169
REMARK   74  A    between atoms: _169  and  _170
REMARK   75  A    between atoms: _170  and  _171
REMARK   76  A    between atoms: _175  and  _177
REMARK   77  A    between atoms: _177  and  _178
REMARK   78  A    between atoms: _177  and  _180
REMARK   79  A    between atoms: _180  and  _181
REMARK   80  A    between atoms: _184  and  _186
REMARK   81  A    between atoms: _186  and  _187
REMARK   82  A    between atoms: _186  and  _189
REMARK   83  A    between atoms: _189  and  _190
REMARK   84  A    between atoms: _192  and  _194
REMARK   85  A    between atoms: _194  and  _195
REMARK   86  A    between atoms: _194  and  _197
REMARK   87  A    between atoms: _197  and  _198
REMARK   88  A    between atoms: _198  and  _199
REMARK   89  A    between atoms: _199  and  _200
REMARK   90  A    between atoms: _209  and  _211
REMARK   91  A    between atoms: _211  and  _212
REMARK   92  A    between atoms: _211  and  _214
REMARK   93  A    between atoms: _214  and  _215
REMARK   94  A    between atoms: _218  and  _220
REMARK   95  A    between atoms: _220  and  _221
REMARK   96  A    between atoms: _220  and  _223
REMARK   97  A    between atoms: _223  and  _224
REMARK   98  A    between atoms: _224  and  _225
REMARK   99  A    between atoms: _228  and  _230
REMARK  100  A    between atoms: _230  and  _231
REMARK  101  A    between atoms: _230  and  _233
REMARK  102  A    between atoms: _233  and  _234
REMARK  103  A    between atoms: _237  and  _239
REMARK  104  A    between atoms: _239  and  _240
REMARK  105  A    between atoms: _239  and  _242
REMARK  106  A    between atoms: _242  and  _243
REMARK  107  A    between atoms: _246  and  _248
REMARK  108  A    between atoms: _248  and  _249
REMARK  109  A    between atoms: _251  and  _253
REMARK  110  A    between atoms: _253  and  _254
REMARK  111  A    between atoms: _253  and  _256
REMARK  112  A    between atoms: _259  and  _261
REMARK  113  A    between atoms: _261  and  _262
REMARK  114  A    between atoms: _261  and  _264
REMARK  115  A    between atoms: _264  and  _265
REMARK  116  A    between atoms: _268  and  _270
REMARK  117  A    between atoms: _270  and  _271
REMARK  118  A    between atoms: _270  and  _273
REMARK  119  A    between atoms: _276  and  _278
REMARK  120  A    between atoms: _278  and  _279
REMARK  121  A    between atoms: _278  and  _281
REMARK  122  A    between atoms: _281  and  _282
REMARK  123  A    between atoms: _282  and  _283
REMARK  124  A    between atoms: _288  and  _290
REMARK  125  A    between atoms: _290  and  _291
REMARK  126  A    between atoms: _290  and  _293
REMARK  127  A    between atoms: _293  and  _294
REMARK  128  A    between atoms: _297  and  _299
REMARK  129  A    between atoms: _299  and  _300
REMARK  130  A    between atoms: _299  and  _302
REMARK  131  A    between atoms: _302  and  _303
REMARK  132  A    between atoms: _306  and  _308
REMARK  133  A    between atoms: _308  and  _309
REMARK  134  A    between atoms: _308  and  _311
REMARK  135  A    between atoms: _311  and  _312
REMARK  136  A    between atoms: _312  and  _313
REMARK  137  A    between atoms: _315  and  _317
REMARK  138  A    between atoms: _317  and  _318
REMARK  139  A    between atoms: _317  and  _320
REMARK  140  A    between atoms: _320  and  _321
REMARK  141  A    between atoms: _321  and  _322
REMARK  142  A    between atoms: _325  and  _327
REMARK  143  A    between atoms: _327  and  _328
REMARK  144  A    between atoms: _327  and  _330
REMARK  145  A    between atoms: _330  and  _331
REMARK  146  A    between atoms: _334  and  _336
REMARK  147  A    between atoms: _336  and  _337
REMARK  148  A    between atoms: _336  and  _339
REMARK  149  A    between atoms: _339  and  _340
REMARK  150  A    between atoms: _343  and  _345
REMARK  151  A    between atoms: _345  and  _346
REMARK  152  A    between atoms: _345  and  _348
REMARK  153  A    between atoms: _348  and  _349
REMARK  154  A    between atoms: _352  and  _354
REMARK  155  A    between atoms: _354  and  _355
REMARK  156  A    between atoms: _354  and  _357
REMARK  157  A    between atoms: _357  and  _358
REMARK  158  A    between atoms: _363  and  _364
REMARK  159  A    between atoms: _366  and  _368
REMARK  160  A    between atoms: _368  and  _369
REMARK  161  A    between atoms: _368  and  _371
REMARK  162  A    between atoms: _371  and  _372
REMARK  163  A    between atoms: _372  and  _373
REMARK  164  A    between atoms: _373  and  _374
REMARK  165  A    between atoms: _374  and  _375
REMARK  166  A    between atoms: _379  and  _381
REMARK  167  A    between atoms: _381  and  _382
REMARK  168  A    between atoms: _381  and  _384
REMARK  169  A    between atoms: _384  and  _385
REMARK  170  A    between atoms: _388  and  _390
REMARK  171  A    between atoms: _390  and  _391
REMARK  172  A    between atoms: _390  and  _393
REMARK  173  A    between atoms: _393  and  _394
REMARK  174  A    between atoms: _397  and  _399
REMARK  175  A    between atoms: _399  and  _400
REMARK  176  A    between atoms: _399  and  _402
REMARK  177  A    between atoms: _402  and  _403
REMARK  178  A    between atoms: _403  and  _404
REMARK  179  A    between atoms: _404  and  _405
REMARK  180  A    between atoms: _405  and  _406
REMARK  181  A    between atoms: _411  and  _412
REMARK  182  A    between atoms: _417  and  _419
REMARK  183  A    between atoms: _419  and  _420
REMARK  184  A    between atoms: _419  and  _422
REMARK  185  A    between atoms: _422  and  _423
REMARK  186  A    between atoms: _425  and  _427
REMARK  187  A    between atoms: _427  and  _428
REMARK  188  A    between atoms: _427  and  _430
REMARK  189  A    between atoms: _430  and  _431
REMARK  190  A    between atoms: _436  and  _438
REMARK  191  A    between atoms: _438  and  _439
REMARK  192  A    between atoms: _438  and  _441
REMARK  193  A    between atoms: _441  and  _442
REMARK  194  A    between atoms: _445  and  _447
REMARK  195  A    between atoms: _447  and  _448
REMARK  196  A    between atoms: _447  and  _450
REMARK  197  A    between atoms: _450  and  _451
REMARK  198  A    between atoms: _454  and  _456
REMARK  199  A    between atoms: _456  and  _457
REMARK  200  A    between atoms: _456  and  _459
REMARK  201  A    between atoms: _459  and  _460
REMARK  202  A    between atoms: _463  and  _465
REMARK  203  A    between atoms: _465  and  _466
REMARK  204  A    between atoms: _465  and  _468
REMARK  205  A    between atoms: _468  and  _469
REMARK  206  A    between atoms: _469  and  _470
REMARK  207  A    between atoms: _470  and  _471
REMARK  208  A    between atoms: _471  and  _472
REMARK  209  A    between atoms: _476  and  _478
REMARK  210  A    between atoms: _478  and  _479
REMARK  211  A    between atoms: _478  and  _481
REMARK  212  A    between atoms: _481  and  _482
REMARK  213  A    between atoms: _485  and  _487
REMARK  214  A    between atoms: _487  and  _488
REMARK  215  A    between atoms: _487  and  _490
REMARK  216  A    between atoms: _492  and  _494
REMARK  217  A    between atoms: _494  and  _495
REMARK  218  A    between atoms: _494  and  _497
REMARK  219  A    between atoms: _497  and  _498
REMARK  220  A    between atoms: _501  and  _503
REMARK  221  A    between atoms: _503  and  _504
REMARK  222  A    between atoms: _503  and  _506
REMARK  223  A    between atoms: _506  and  _507
REMARK  224  A    between atoms: _513  and  _515
REMARK  225  A    between atoms: _515  and  _516
REMARK  226  A    between atoms: _518  and  _520
REMARK  227  A    between atoms: _520  and  _521
REMARK  228  A    between atoms: _520  and  _523
REMARK  229  A    between atoms: _523  and  _524
REMARK  230  A    between atoms: _527  and  _529
REMARK  231  A    between atoms: _529  and  _530
REMARK  232  A    between atoms: _529  and  _532
REMARK  233  A    between atoms: _532  and  _533
REMARK                            x       y       z     vdW  Elec       q    Type
REMARK                         _______ _______ _______ _____ _____    ______ ____
ROOT
ATOM      1  CA  ASP A   1      18.505   1.366  37.752  0.00  0.00    +0.144 C 
ENDROOT
BRANCH   1   2
ATOM      2  N   ASP A   1      19.325   2.470  38.249  0.00  0.00    -0.239 NA
ATOM      3  H   ASP A   1      18.870   3.231  38.793  0.00  0.00    +0.142 HD
ENDBRANCH   1   2
BRANCH   1   4
ATOM      4  C   ASP A   1      17.059   1.819  37.441  0.00  0.00    +0.225 C 
ATOM      5  O   ASP A   1      16.083   1.074  37.654  0.00  0.00    -0.287 OA
ENDBRANCH   1   4
BRANCH   1   6
ATOM      6  CB  ASP A   1      18.517   0.217  38.768  0.00  0.00    +0.139 C 
BRANCH   6   7
ATOM      7  CG  ASP A   1      17.972  -1.087  38.197  0.00  0.00    +0.367 C 
ATOM      8  OD2 ASP A   1      17.482  -1.906  39.006  0.00  0.00    -0.246 OA
ATOM      9  OD1 ASP A   1      18.021  -1.288  36.954  0.00  0.00    -0.246 OA
ENDBRANCH   6   7
ENDBRANCH   1   6
TORSDOF 4
REMARK  Name = ../refined-set-2016/3i60/3i60_pocket.pdb
REMARK  233 active torsions:
REMARK  status: ('A' for Active; 'I' for Inactive)
REMARK    1  A    between atoms: _1  and  _3
REMARK    2  A    between atoms: _3  and  _4
REMARK    3  A    between atoms: _3  and  _6
REMARK    4  A    between atoms: _6  and  _7
REMARK    5  A    between atoms: _9  and  _11
REMARK    6  A    between atoms: _11  and  _12
REMARK    7  A    between atoms: _11  and  _14
REMARK    8  A    between atoms: _14  and  _15
REMARK    9  A    between atoms: _20  and  _21
REMARK   10  A    between atoms: _23  and  _25
REMARK   11  A    between atoms: _25  and  _26
REMARK   12  A    between atoms: _25  and  _28
REMARK   13  A    between atoms: _28  and  _29
REMARK   14  A    between atoms: _32  and  _34
REMARK   15  A    between atoms: _34  and  _35
REMARK   16  A    between atoms: _37  and  _39
REMARK   17  A    between atoms: _39  and  _40
REMARK   18  A    between atoms: _39  and  _42
REMARK   19  A    between atoms: _42  and  _43
REMARK   20  A    between atoms: _43  and  _44
REMARK   21  A    between atoms: _47  and  _49
REMARK   22  A    between atoms: _49  and  _50
REMARK   23  A    between atoms: _52  and  _54
REMARK   24  A    between atoms: _54  and  _55
REMARK   25  A    between atoms: _58  and  _60
REMARK   26  A    between atoms: _60  and  _61
REMARK   27  A    between atoms: _60  and  _63
REMARK   28  A    between atoms: _63  and  _64
REMARK   29  A    between atoms: _69  and  _70
REMARK   30  A    between atoms: _72  and  _74
REMARK   31  A    between atoms: _74  and  _75
REMARK   32  A    between atoms: _77  and  _79
REMARK   33  A    between atoms: _79  and  _80
REMARK   34  A    between atoms: _79  and  _82
REMARK   35  A    between atoms: _82  and  _83
REMARK   36  A    between atoms: _83  and  _84
REMARK   37  A    between atoms: _86  and  _88
REMARK   38  A    between atoms: _88  and  _89
REMARK   39  A    between atoms: _88  and  _91
REMARK   40  A    between atoms: _94  and  _96
REMARK   41  A    between atoms: _96  and  _97
REMARK   42  A    between atoms: _96  and  _99
REMARK   43  A    between atoms: _101  and  _103
REMARK   44  A    between atoms: _103  and  _104
REMARK   45  A    between atoms: _103  and  _106
REMARK   46  A    between atoms: _106  and  _107
REMARK   47  A    between atoms: _109  and  _111
REMARK   48  A    between atoms: _111  and  _112
REMARK   49  A    between atoms: _111  and  _114
REMARK   50  A    between atoms: _114  and  _115
REMARK   51  A    between atoms: _115  and  _116
REMARK   52  A    between atoms: _116  and  _117
REMARK   53  A    between atoms: _126  and  _128
REMARK   54  A    between atoms: _128  and  _129
REMARK   55  A    between atoms: _128  and  _131
REMARK   56  A    between atoms: _134  and  _136
REMARK   57  A    between atoms: _136  and  _137
REMARK   58  A    between atoms: _140  and  _142
REMARK   59  A    between atoms: _142  and  _143
REMARK   60  A    between atoms: _142  and  _145
REMARK   61  A    between atoms: _145  and  _146
REMARK   62  A    between atoms: _149  and  _151
REMARK   63  A    between atoms: _151  and  _152
REMARK   64  A    between atoms: _151  and  _154
REMARK   65  A    between atoms: _154  and  _155
REMARK   66  A    between atoms: _155  and  _156
REMARK   67  A    between atoms: _156  and  _157
REMARK   68  A    between atoms: _157  and  _158
REMARK   69  A    between atoms: _162  and  _164
REMARK   70  A    between atoms: _164  and  _165
REMARK   71  A    between atoms: _164  and  _167
REMARK   72  A    between atoms: _167  and  _168
REMARK   73  A    between atoms: _168  and  _169
REMARK   74  A    between atoms: _169  and  _170
REMARK   75  A    between atoms: _170  and  _171
REMARK   76  A    between atoms: _175  and  _177
REMARK   77  A    between atoms: _177  and  _178
REMARK   78  A    between atoms: _177  and  _180
REMARK   79  A    between atoms: _180  and  _181
REMARK   80  A    between atoms: _184  and  _186
REMARK   81  A    between atoms: _186  and  _187
REMARK   82  A    between atoms: _186  and  _189
REMARK   83  A    between atoms: _189  and  _190
REMARK   84  A    between atoms: _192  and  _194
REMARK   85  A    between atoms: _194  and  _195
REMARK   86  A    between atoms: _194  and  _197
REMARK   87  A    between atoms: _197  and  _198
REMARK   88  A    between atoms: _198  and  _199
REMARK   89  A    between atoms: _199  and  _200
REMARK   90  A    between atoms: _209  and  _211
REMARK   91  A    between atoms: _211  and  _212
REMARK   92  A    between atoms: _211  and  _214
REMARK   93  A    between atoms: _214  and  _215
REMARK   94  A    between atoms: _218  and  _220
REMARK   95  A    between atoms: _220  and  _221
REMARK   96  A    between atoms: _220  and  _223
REMARK   97  A    between atoms: _223  and  _224
REMARK   98  A    between atoms: _224  and  _225
REMARK   99  A    between atoms: _228  and  _230
REMARK  100  A    between atoms: _230  and  _231
REMARK  101  A    between atoms: _230  and  _233
REMARK  102  A    between atoms: _233  and  _234
REMARK  103  A    between atoms: _237  and  _239
REMARK  104  A    between atoms: _239  and  _240
REMARK  105  A    between atoms: _239  and  _242
REMARK  106  A    between atoms: _242  and  _243
REMARK  107  A    between atoms: _246  and  _248
REMARK  108  A    between atoms: _248  and  _249
REMARK  109  A    between atoms: _251  and  _253
REMARK  110  A    between atoms: _253  and  _254
REMARK  111  A    between atoms: _253  and  _256
REMARK  112  A    between atoms: _259  and  _261
REMARK  113  A    between atoms: _261  and  _262
REMARK  114  A    between atoms: _261  and  _264
REMARK  115  A    between atoms: _264  and  _265
REMARK  116  A    between atoms: _268  and  _270
REMARK  117  A    between atoms: _270  and  _271
REMARK  118  A    between atoms: _270  and  _273
REMARK  119  A    between atoms: _276  and  _278
REMARK  120  A    between atoms: _278  and  _279
REMARK  121  A    between atoms: _278  and  _281
REMARK  122  A    between atoms: _281  and  _282
REMARK  123  A    between atoms: _282  and  _283
REMARK  124  A    between atoms: _288  and  _290
REMARK  125  A    between atoms: _290  and  _291
REMARK  126  A    between atoms: _290  and  _293
REMARK  127  A    between atoms: _293  and  _294
REMARK  128  A    between atoms: _297  and  _299
REMARK  129  A    between atoms: _299  and  _300
REMARK  130  A    between atoms: _299  and  _302
REMARK  131  A    between atoms: _302  and  _303
REMARK  132  A    between atoms: _306  and  _308
REMARK  133  A    between atoms: _308  and  _309
REMARK  134  A    between atoms: _308  and  _311
REMARK  135  A    between atoms: _311  and  _312
REMARK  136  A    between atoms: _312  and  _313
REMARK  137  A    between atoms: _315  and  _317
REMARK  138  A    between atoms: _317  and  _318
REMARK  139  A    between atoms: _317  and  _320
REMARK  140  A    between atoms: _320  and  _321
REMARK  141  A    between atoms: _321  and  _322
REMARK  142  A    between atoms: _325  and  _327
REMARK  143  A    between atoms: _327  and  _328
REMARK  144  A    between atoms: _327  and  _330
REMARK  145  A    between atoms: _330  and  _331
REMARK  146  A    between atoms: _334  and  _336
REMARK  147  A    between atoms: _336  and  _337
REMARK  148  A    between atoms: _336  and  _339
REMARK  149  A    between atoms: _339  and  _340
REMARK  150  A    between atoms: _343  and  _345
REMARK  151  A    between atoms: _345  and  _346
REMARK  152  A    between atoms: _345  and  _348
REMARK  153  A    between atoms: _348  and  _349
REMARK  154  A    between atoms: _352  and  _354
REMARK  155  A    between atoms: _354  and  _355
REMARK  156  A    between atoms: _354  and  _357
REMARK  157  A    between atoms: _357  and  _358
REMARK  158  A    between atoms: _363  and  _364
REMARK  159  A    between atoms: _366  and  _368
REMARK  160  A    between atoms: _368  and  _369
REMARK  161  A    between atoms: _368  and  _371
REMARK  162  A    between atoms: _371  and  _372
REMARK  163  A    between atoms: _372  and  _373
REMARK  164  A    between atoms: _373  and  _374
REMARK  165  A    between atoms: _374  and  _375
REMARK  166  A    between atoms: _379  and  _381
REMARK  167  A    between atoms: _381  and  _382
REMARK  168  A    between atoms: _381  and  _384
REMARK  169  A    between atoms: _384  and  _385
REMARK  170  A    between atoms: _388  and  _390
REMARK  171  A    between atoms: _390  and  _391
REMARK  172  A    between atoms: _390  and  _393
REMARK  173  A    between atoms: _393  and  _394
REMARK  174  A    between atoms: _397  and  _399
REMARK  175  A    between atoms: _399  and  _400
REMARK  176  A    between atoms: _399  and  _402
REMARK  177  A    between atoms: _402  and  _403
REMARK  178  A    between atoms: _403  and  _404
REMARK  179  A    between atoms: _404  and  _405
REMARK  180  A    between atoms: _405  and  _406
REMARK  181  A    between atoms: _411  and  _412
REMARK  182  A    between atoms: _417  and  _419
REMARK  183  A    between atoms: _419  and  _420
REMARK  184  A    between atoms: _419  and  _422
REMARK  185  A    between atoms: _422  and  _423
REMARK  186  A    between atoms: _425  and  _427
REMARK  187  A    between atoms: _427  and  _428
REMARK  188  A    between atoms: _427  and  _430
REMARK  189  A    between atoms: _430  and  _431
REMARK  190  A    between atoms: _436  and  _438
REMARK  191  A    between atoms: _438  and  _439
REMARK  192  A    between atoms: _438  and  _441
REMARK  193  A    between atoms: _441  and  _442
REMARK  194  A    between atoms: _445  and  _447
REMARK  195  A    between atoms: _447  and  _448
REMARK  196  A    between atoms: _447  and  _450
REMARK  197  A    between atoms: _450  and  _451
REMARK  198  A    between atoms: _454  and  _456
REMARK  199  A    between atoms: _456  and  _457
REMARK  200  A    between atoms: _456  and  _459
REMARK  201  A    between atoms: _459  and  _460
REMARK  202  A    between atoms: _463  and  _465
REMARK  203  A    between atoms: _465  and  _466
REMARK  204  A    between atoms: _465  and  _468
REMARK  205  A    between atoms: _468  and  _469
REMARK  206  A    between atoms: _469  and  _470
REMARK  207  A    between atoms: _470  and  _471
REMARK  208  A    between atoms: _471  and  _472
REMARK  209  A    between atoms: _476  and  _478
REMARK  210  A    between atoms: _478  and  _479
REMARK  211  A    between atoms: _478  and  _481
REMARK  212  A    between atoms: _481  and  _482
REMARK  213  A    between atoms: _485  and  _487
REMARK  214  A    between atoms: _487  and  _488
REMARK  215  A    between atoms: _487  and  _490
REMARK  216  A    between atoms: _492  and  _494
REMARK  217  A    between atoms: _494  and  _495
REMARK  218  A    between atoms: _494  and  _497
REMARK  219  A    between atoms: _497  and  _498
REMARK  220  A    between atoms: _501  and  _503
REMARK  221  A    between atoms: _503  and  _504
REMARK  222  A    between atoms: _503  and  _506
REMARK  223  A    between atoms: _506  and  _507
REMARK  224  A    between atoms: _513  and  _515
REMARK  225  A    between atoms: _515  and  _516
REMARK  226  A    between atoms: _518  and  _520
REMARK  227  A    between atoms: _520  and  _521
REMARK  228  A    between atoms: _520  and  _523
REMARK  229  A    between atoms: _523  and  _524
REMARK  230  A    between atoms: _527  and  _529
REMARK  231  A    between atoms: _529  and  _530
REMARK  232  A    between atoms: _529  and  _532
REMARK  233  A    between atoms: _532  and  _533
REMARK                            x       y       z     vdW  Elec       q    Type
REMARK                         _______ _______ _______ _____ _____    ______ ____
ROOT
ATOM      1  CA  ASN A   4      10.904   0.591  39.286  0.00  0.00    +0.158 C 
ENDROOT
BRANCH   1   4
ATOM      2  C   SER A   3       9.648  -1.190  38.178  0.00  0.00    +0.243 C 
ATOM      3  O   SER A   3       9.235  -1.647  39.249  0.00  0.00    -0.273 OA
ATOM      4  N   ASN A   4      10.500  -0.167  38.102  0.00  0.00    -0.297 N 
ATOM      5  H   ASN A   4      10.888   0.099  37.175  0.00  0.00    +0.150 HD
BRANCH   2   6
ATOM      6  CA  SER A   3       9.196  -1.794  36.853  0.00  0.00    +0.178 C 
BRANCH   6   9
ATOM      7  C   PRO A   2       8.985   0.178  35.440  0.00  0.00    +0.241 C 
ATOM      8  O   PRO A   2       8.106   0.649  36.150  0.00  0.00    -0.273 OA
ATOM      9  N   SER A   3       9.599  -0.966  35.715  0.00  0.00    -0.295 N 
ATOM     10  H   SER A   3      10.383  -1.281  35.109  0.00  0.00    +0.150 HD
BRANCH   7  14
ATOM     11  C   LYS A   1      11.767   1.352  34.832  0.00  0.00    +0.241 C 
ATOM     12  O   LYS A   1      11.451   1.751  35.967  0.00  0.00    -0.273 OA
ATOM     13  N   PRO A   2      10.881   0.861  33.936  0.00  0.00    -0.272 N 
ATOM     14  CA  PRO A   2       9.436   0.931  34.191  0.00  0.00    +0.152 C 
ATOM     15  CB  PRO A   2       8.824   0.317  32.919  0.00  0.00    +0.031 C 
ATOM     16  CG  PRO A   2       9.856   0.514  31.873  0.00  0.00    +0.024 C 
ATOM     17  CD  PRO A   2      11.161   0.340  32.584  0.00  0.00    +0.094 C 
BRANCH  11  18
ATOM     18  CA  LYS A   1      13.213   1.447  34.405  0.00  0.00    +0.145 C 
BRANCH  18  19
ATOM     19  N   LYS A   1      13.858   2.285  35.419  0.00  0.00    -0.238 NA
ATOM     20  H   LYS A   1      13.305   2.577  36.250  0.00  0.00    +0.142 HD
ENDBRANCH  18  19
BRANCH  18  21
ATOM     21  CB  LYS A   1      13.857   0.062  34.317  0.00  0.00    +0.026 C 
BRANCH  21  22
ATOM     22  CG  LYS A   1      13.952  -0.659  35.646  0.00  0.00    -0.000 C 
BRANCH  22  23
ATOM     23  CD  LYS A   1      14.545  -2.020  35.446  0.00  0.00    -0.024 C 
BRANCH  23  24
ATOM     24  CE  LYS A   1      14.398  -2.873  36.688  0.00  0.00    -0.086 C 
BRANCH  24  25
ATOM     25  NZ  LYS A   1      15.044  -4.208  36.486  0.00  0.00    +0.380 N 
ATOM     26  HZ1 LYS A   1      14.933  -4.779  37.348  0.00  0.00    -0.089 HD
ATOM     27  HZ2 LYS A   1      16.056  -4.075  36.284  0.00  0.00    -0.089 HD
ATOM     28  HZ3 LYS A   1      14.590  -4.694  35.686  0.00  0.00    -0.089 HD
ENDBRANCH  24  25
ENDBRANCH  23  24
ENDBRANCH  22  23
ENDBRANCH  21  22
ENDBRANCH  18  21
ENDBRANCH  11  18
ENDBRANCH   7  14
ENDBRANCH   6   9
BRANCH   6  29
ATOM     29  CB  SER A   3       9.707  -3.238  36.702  0.00  0.00    +0.166 C 
BRANCH  29  30
ATOM     30  OG  SER A   3      11.117  -3.285  36.841  0.00  0.00    -0.380 OA
ATOM     31  H   SER A   3      11.371  -2.946  37.736  0.00  0.00    +0.211 HD
ENDBRANCH  29  30
ENDBRANCH   6  29
ENDBRANCH   2   6
ENDBRANCH   1   4
BRANCH   1  32
ATOM     32  C   ASN A   4      10.180   1.922  39.423  0.00  0.00    +0.241 C 
ATOM     33  O   ASN A   4      10.604   2.798  40.170  0.00  0.00    -0.273 OA
ATOM     34  N   LEU A   5       9.074   2.059  38.704  0.00  0.00    -0.297 N 
ATOM     35  H   LEU A   5       8.781   1.277  38.084  0.00  0.00    +0.150 HD
BRANCH  34  36
ATOM     36  CA  LEU A   5       8.255   3.261  38.749  0.00  0.00    +0.149 C 
BRANCH  36  37
ATOM     37  C   LEU A   5       6.844   2.850  39.088  0.00  0.00    +0.241 C 
ATOM     38  N   LEU A   6       6.391   3.255  40.265  0.00  0.00    -0.297 N 
ATOM     39  H   LEU A   6       6.953   3.943  40.806  0.00  0.00    +0.150 HD
ATOM     40  O   LEU A   5       6.182   2.189  38.294  0.00  0.00    -0.273 OA
BRANCH  38  41
ATOM     41  CA  LEU A   6       5.146   2.780  40.829  0.00  0.00    +0.149 C 
BRANCH  41  42
ATOM     42  C   LEU A   6       4.024   3.788  40.660  0.00  0.00    +0.241 C 
ATOM     43  O   LEU A   6       4.226   5.003  40.790  0.00  0.00    -0.273 OA
ATOM     44  N   LEU A   7       2.833   3.276  40.388  0.00  0.00    -0.298 N 
ATOM     45  H   LEU A   7       2.711   2.243  40.381  0.00  0.00    +0.150 HD
BRANCH  44  46
ATOM     46  CA  LEU A   7       1.704   4.124  40.102  0.00  0.00    +0.137 C 
BRANCH  46  47
ATOM     47  C   LEU A   7       0.538   3.748  40.994  0.00  0.00    +0.227 C 
ATOM     48  O   LEU A   7       0.335   2.565  41.299  0.00  0.00    -0.286 OA
ENDBRANCH  46  47
BRANCH  46  49
ATOM     49  CB  LEU A   7       1.303   4.001  38.625  0.00  0.00    +0.028 C 
BRANCH  49  50
ATOM     50  CG  LEU A   7       2.403   4.175  37.565  0.00  0.00    +0.002 C 
ATOM     51  CD2 LEU A   7       2.884   5.627  37.455  0.00  0.00    +0.000 C 
ATOM     52  CD1 LEU A   7       1.957   3.634  36.204  0.00  0.00    +0.000 C 
ENDBRANCH  49  50
ENDBRANCH  46  49
ENDBRANCH  44  46
ENDBRANCH  41  42
BRANCH  41  53
ATOM     53  CB  LEU A   6       5.329   2.469  42.312  0.00  0.00    +0.029 C 
BRANCH  53  54
ATOM     54  CG  LEU A   6       6.475   1.541  42.732  0.00  0.00    +0.002 C 
ATOM     55  CD2 LEU A   6       6.635   1.546  44.244  0.00  0.00    +0.000 C 
ATOM     56  CD1 LEU A   6       6.257   0.126  42.210  0.00  0.00    +0.000 C 
ENDBRANCH  53  54
ENDBRANCH  41  53
ENDBRANCH  38  41
ENDBRANCH  36  37
BRANCH  36  57
ATOM     57  CB  LEU A   5       8.286   3.994  37.410  0.00  0.00    +0.029 C 
BRANCH  57  58
ATOM     58  CG  LEU A   5       9.660   4.546  36.987  0.00  0.00    +0.002 C 
ATOM     59  CD2 LEU A   5      10.202   5.542  38.020  0.00  0.00    +0.000 C 
ATOM     60  CD1 LEU A   5       9.627   5.146  35.565  0.00  0.00    +0.000 C 
ENDBRANCH  57  58
ENDBRANCH  36  57
ENDBRANCH  34  36
ENDBRANCH   1  32
BRANCH   1  61
ATOM     61  CB  ASN A   4      12.430   0.758  39.337  0.00  0.00    +0.114 C 
BRANCH  61  62
ATOM     62  CG  ASN A   4      13.144  -0.541  39.697  0.00  0.00    +0.222 C 
ATOM     63  OD1 ASN A   4      12.510  -1.529  40.087  0.00  0.00    -0.275 OA
ATOM     64  ND2 ASN A   4      14.456  -0.549  39.565  0.00  0.00    -0.329 N 
ATOM     65 HD21 ASN A   4      14.996  -1.408  39.792  0.00  0.00    +0.145 HD
ATOM     66 HD22 ASN A   4      14.951   0.304  39.234  0.00  0.00    +0.145 HD
ENDBRANCH  61  62
ENDBRANCH   1  61
TORSDOF 28
REMARK  Name = ../refined-set-2016/3i60/3i60_pocket.pdb
REMARK  233 active torsions:
REMARK  status: ('A' for Active; 'I' for Inactive)
REMARK    1  A    between atoms: _1  and  _3
REMARK    2  A    between atoms: _3  and  _4
REMARK    3  A    between atoms: _3  and  _6
REMARK    4  A    between atoms: _6  and  _7
REMARK    5  A    between atoms: _9  and  _11
REMARK    6  A    between atoms: _11  and  _12
REMARK    7  A    between atoms: _11  and  _14
REMARK    8  A    between atoms: _14  and  _15
REMARK    9  A    between atoms: _20  and  _21
REMARK   10  A    between atoms: _23  and  _25
REMARK   11  A    between atoms: _25  and  _26
REMARK   12  A    between atoms: _25  and  _28
REMARK   13  A    between atoms: _28  and  _29
REMARK   14  A    between atoms: _32  and  _34
REMARK   15  A    between atoms: _34  and  _35
REMARK   16  A    between atoms: _37  and  _39
REMARK   17  A    between atoms: _39  and  _40
REMARK   18  A    between atoms: _39  and  _42
REMARK   19  A    between atoms: _42  and  _43
REMARK   20  A    between atoms: _43  and  _44
REMARK   21  A    between atoms: _47  and  _49
REMARK   22  A    between atoms: _49  and  _50
REMARK   23  A    between atoms: _52  and  _54
REMARK   24  A    between atoms: _54  and  _55
REMARK   25  A    between atoms: _58  and  _60
REMARK   26  A    between atoms: _60  and  _61
REMARK   27  A    between atoms: _60  and  _63
REMARK   28  A    between atoms: _63  and  _64
REMARK   29  A    between atoms: _69  and  _70
REMARK   30  A    between atoms: _72  and  _74
REMARK   31  A    between atoms: _74  and  _75
REMARK   32  A    between atoms: _77  and  _79
REMARK   33  A    between atoms: _79  and  _80
REMARK   34  A    between atoms: _79  and  _82
REMARK   35  A    between atoms: _82  and  _83
REMARK   36  A    between atoms: _83  and  _84
REMARK   37  A    between atoms: _86  and  _88
REMARK   38  A    between atoms: _88  and  _89
REMARK   39  A    between atoms: _88  and  _91
REMARK   40  A    between atoms: _94  and  _96
REMARK   41  A    between atoms: _96  and  _97
REMARK   42  A    between atoms: _96  and  _99
REMARK   43  A    between atoms: _101  and  _103
REMARK   44  A    between atoms: _103  and  _104
REMARK   45  A    between atoms: _103  and  _106
REMARK   46  A    between atoms: _106  and  _107
REMARK   47  A    between atoms: _109  and  _111
REMARK   48  A    between atoms: _111  and  _112
REMARK   49  A    between atoms: _111  and  _114
REMARK   50  A    between atoms: _114  and  _115
REMARK   51  A    between atoms: _115  and  _116
REMARK   52  A    between atoms: _116  and  _117
REMARK   53  A    between atoms: _126  and  _128
REMARK   54  A    between atoms: _128  and  _129
REMARK   55  A    between atoms: _128  and  _131
REMARK   56  A    between atoms: _134  and  _136
REMARK   57  A    between atoms: _136  and  _137
REMARK   58  A    between atoms: _140  and  _142
REMARK   59  A    between atoms: _142  and  _143
REMARK   60  A    between atoms: _142  and  _145
REMARK   61  A    between atoms: _145  and  _146
REMARK   62  A    between atoms: _149  and  _151
REMARK   63  A    between atoms: _151  and  _152
REMARK   64  A    between atoms: _151  and  _154
REMARK   65  A    between atoms: _154  and  _155
REMARK   66  A    between atoms: _155  and  _156
REMARK   67  A    between atoms: _156  and  _157
REMARK   68  A    between atoms: _157  and  _158
REMARK   69  A    between atoms: _162  and  _164
REMARK   70  A    between atoms: _164  and  _165
REMARK   71  A    between atoms: _164  and  _167
REMARK   72  A    between atoms: _167  and  _168
REMARK   73  A    between atoms: _168  and  _169
REMARK   74  A    between atoms: _169  and  _170
REMARK   75  A    between atoms: _170  and  _171
REMARK   76  A    between atoms: _175  and  _177
REMARK   77  A    between atoms: _177  and  _178
REMARK   78  A    between atoms: _177  and  _180
REMARK   79  A    between atoms: _180  and  _181
REMARK   80  A    between atoms: _184  and  _186
REMARK   81  A    between atoms: _186  and  _187
REMARK   82  A    between atoms: _186  and  _189
REMARK   83  A    between atoms: _189  and  _190
REMARK   84  A    between atoms: _192  and  _194
REMARK   85  A    between atoms: _194  and  _195
REMARK   86  A    between atoms: _194  and  _197
REMARK   87  A    between atoms: _197  and  _198
REMARK   88  A    between atoms: _198  and  _199
REMARK   89  A    between atoms: _199  and  _200
REMARK   90  A    between atoms: _209  and  _211
REMARK   91  A    between atoms: _211  and  _212
REMARK   92  A    between atoms: _211  and  _214
REMARK   93  A    between atoms: _214  and  _215
REMARK   94  A    between atoms: _218  and  _220
REMARK   95  A    between atoms: _220  and  _221
REMARK   96  A    between atoms: _220  and  _223
REMARK   97  A    between atoms: _223  and  _224
REMARK   98  A    between atoms: _224  and  _225
REMARK   99  A    between atoms: _228  and  _230
REMARK  100  A    between atoms: _230  and  _231
REMARK  101  A    between atoms: _230  and  _233
REMARK  102  A    between atoms: _233  and  _234
REMARK  103  A    between atoms: _237  and  _239
REMARK  104  A    between atoms: _239  and  _240
REMARK  105  A    between atoms: _239  and  _242
REMARK  106  A    between atoms: _242  and  _243
REMARK  107  A    between atoms: _246  and  _248
REMARK  108  A    between atoms: _248  and  _249
REMARK  109  A    between atoms: _251  and  _253
REMARK  110  A    between atoms: _253  and  _254
REMARK  111  A    between atoms: _253  and  _256
REMARK  112  A    between atoms: _259  and  _261
REMARK  113  A    between atoms: _261  and  _262
REMARK  114  A    between atoms: _261  and  _264
REMARK  115  A    between atoms: _264  and  _265
REMARK  116  A    between atoms: _268  and  _270
REMARK  117  A    between atoms: _270  and  _271
REMARK  118  A    between atoms: _270  and  _273
REMARK  119  A    between atoms: _276  and  _278
REMARK  120  A    between atoms: _278  and  _279
REMARK  121  A    between atoms: _278  and  _281
REMARK  122  A    between atoms: _281  and  _282
REMARK  123  A    between atoms: _282  and  _283
REMARK  124  A    between atoms: _288  and  _290
REMARK  125  A    between atoms: _290  and  _291
REMARK  126  A    between atoms: _290  and  _293
REMARK  127  A    between atoms: _293  and  _294
REMARK  128  A    between atoms: _297  and  _299
REMARK  129  A    between atoms: _299  and  _300
REMARK  130  A    between atoms: _299  and  _302
REMARK  131  A    between atoms: _302  and  _303
REMARK  132  A    between atoms: _306  and  _308
REMARK  133  A    between atoms: _308  and  _309
REMARK  134  A    between atoms: _308  and  _311
REMARK  135  A    between atoms: _311  and  _312
REMARK  136  A    between atoms: _312  and  _313
REMARK  137  A    between atoms: _315  and  _317
REMARK  138  A    between atoms: _317  and  _318
REMARK  139  A    between atoms: _317  and  _320
REMARK  140  A    between atoms: _320  and  _321
REMARK  141  A    between atoms: _321  and  _322
REMARK  142  A    between atoms: _325  and  _327
REMARK  143  A    between atoms: _327  and  _328
REMARK  144  A    between atoms: _327  and  _330
REMARK  145  A    between atoms: _330  and  _331
REMARK  146  A    between atoms: _334  and  _336
REMARK  147  A    between atoms: _336  and  _337
REMARK  148  A    between atoms: _336  and  _339
REMARK  149  A    between atoms: _339  and  _340
REMARK  150  A    between atoms: _343  and  _345
REMARK  151  A    between atoms: _345  and  _346
REMARK  152  A    between atoms: _345  and  _348
REMARK  153  A    between atoms: _348  and  _349
REMARK  154  A    between atoms: _352  and  _354
REMARK  155  A    between atoms: _354  and  _355
REMARK  156  A    between atoms: _354  and  _357
REMARK  157  A    between atoms: _357  and  _358
REMARK  158  A    between atoms: _363  and  _364
REMARK  159  A    between atoms: _366  and  _368
REMARK  160  A    between atoms: _368  and  _369
REMARK  161  A    between atoms: _368  and  _371
REMARK  162  A    between atoms: _371  and  _372
REMARK  163  A    between atoms: _372  and  _373
REMARK  164  A    between atoms: _373  and  _374
REMARK  165  A    between atoms: _374  and  _375
REMARK  166  A    between atoms: _379  and  _381
REMARK  167  A    between atoms: _381  and  _382
REMARK  168  A    between atoms: _381  and  _384
REMARK  169  A    between atoms: _384  and  _385
REMARK  170  A    between atoms: _388  and  _390
REMARK  171  A    between atoms: _390  and  _391
REMARK  172  A    between atoms: _390  and  _393
REMARK  173  A    between atoms: _393  and  _394
REMARK  174  A    between atoms: _397  and  _399
REMARK  175  A    between atoms: _399  and  _400
REMARK  176  A    between atoms: _399  and  _402
REMARK  177  A    between atoms: _402  and  _403
REMARK  178  A    between atoms: _403  and  _404
REMARK  179  A    between atoms: _404  and  _405
REMARK  180  A    between atoms: _405  and  _406
REMARK  181  A    between atoms: _411  and  _412
REMARK  182  A    between atoms: _417  and  _419
REMARK  183  A    between atoms: _419  and  _420
REMARK  184  A    between atoms: _419  and  _422
REMARK  185  A    between atoms: _422  and  _423
REMARK  186  A    between atoms: _425  and  _427
REMARK  187  A    between atoms: _427  and  _428
REMARK  188  A    between atoms: _427  and  _430
REMARK  189  A    between atoms: _430  and  _431
REMARK  190  A    between atoms: _436  and  _438
REMARK  191  A    between atoms: _438  and  _439
REMARK  192  A    between atoms: _438  and  _441
REMARK  193  A    between atoms: _441  and  _442
REMARK  194  A    between atoms: _445  and  _447
REMARK  195  A    between atoms: _447  and  _448
REMARK  196  A    between atoms: _447  and  _450
REMARK  197  A    between atoms: _450  and  _451
REMARK  198  A    between atoms: _454  and  _456
REMARK  199  A    between atoms: _456  and  _457
REMARK  200  A    between atoms: _456  and  _459
REMARK  201  A    between atoms: _459  and  _460
REMARK  202  A    between atoms: _463  and  _465
REMARK  203  A    between atoms: _465  and  _466
REMARK  204  A    between atoms: _465  and  _468
REMARK  205  A    between atoms: _468  and  _469
REMARK  206  A    between atoms: _469  and  _470
REMARK  207  A    between atoms: _470  and  _471
REMARK  208  A    between atoms: _471  and  _472
REMARK  209  A    between atoms: _476  and  _478
REMARK  210  A    between atoms: _478  and  _479
REMARK  211  A    between atoms: _478  and  _481
REMARK  212  A    between atoms: _481  and  _482
REMARK  213  A    between atoms: _485  and  _487
REMARK  214  A    between atoms: _487  and  _488
REMARK  215  A    between atoms: _487  and  _490
REMARK  216  A    between atoms: _492  and  _494
REMARK  217  A    between atoms: _494  and  _495
REMARK  218  A    between atoms: _494  and  _497
REMARK  219  A    between atoms: _497  and  _498
REMARK  220  A    between atoms: _501  and  _503
REMARK  221  A    between atoms: _503  and  _504
REMARK  222  A    between atoms: _503  and  _506
REMARK  223  A    between atoms: _506  and  _507
REMARK  224  A    between atoms: _513  and  _515
REMARK  225  A    between atoms: _515  and  _516
REMARK  226  A    between atoms: _518  and  _520
REMARK  227  A    between atoms: _520  and  _521
REMARK  228  A    between atoms: _520  and  _523
REMARK  229  A    between atoms: _523  and  _524
REMARK  230  A    between atoms: _527  and  _529
REMARK  231  A    between atoms: _529  and  _530
REMARK  232  A    between atoms: _529  and  _532
REMARK  233  A    between atoms: _532  and  _533
REMARK                            x       y       z     vdW  Elec       q    Type
REMARK                         _______ _______ _______ _____ _____    ______ ____
ROOT
ATOM      1  CA  ASP A   4      14.205   0.191  44.503  0.00  0.00    +0.160 C 
ENDROOT
BRANCH   1   3
ATOM      2  C   CYS A   3      12.611   1.893  43.744  0.00  0.00    +0.242 C 
ATOM      3  N   ASP A   4      13.015   1.022  44.664  0.00  0.00    -0.297 N 
ATOM      4  H   ASP A   4      12.458   0.928  45.538  0.00  0.00    +0.150 HD
ATOM      5  O   CYS A   3      13.238   2.151  42.717  0.00  0.00    -0.273 OA
BRANCH   2   6
ATOM      6  CA  CYS A   3      11.302   2.578  44.023  0.00  0.00    +0.160 C 
BRANCH   6   9
ATOM      7  C   ILE A   2      10.785   4.848  43.336  0.00  0.00    +0.241 C 
ATOM      8  O   ILE A   2      10.811   5.247  44.510  0.00  0.00    -0.273 OA
ATOM      9  N   CYS A   3      10.983   3.574  43.000  0.00  0.00    -0.296 N 
ATOM     10  H   CYS A   3      10.910   3.286  42.003  0.00  0.00    +0.150 HD
BRANCH   7  11
ATOM     11  CA  ILE A   2      10.506   5.813  42.186  0.00  0.00    +0.148 C 
BRANCH  11  13
ATOM     12  C   LYS A   1       8.105   6.194  42.400  0.00  0.00    +0.238 C 
ATOM     13  N   ILE A   2       9.353   6.637  42.525  0.00  0.00    -0.297 N 
ATOM     14  H   ILE A   2       9.511   7.603  42.876  0.00  0.00    +0.150 HD
ATOM     15  O   LYS A   1       7.826   5.096  41.906  0.00  0.00    -0.274 OA
BRANCH  12  16
ATOM     16  CA  LYS A   1       7.006   7.129  42.892  0.00  0.00    +0.145 C 
BRANCH  16  17
ATOM     17  N   LYS A   1       5.930   7.159  41.916  0.00  0.00    -0.238 NA
ATOM     18  H   LYS A   1       5.617   6.267  41.483  0.00  0.00    +0.142 HD
ENDBRANCH  16  17
BRANCH  16  19
ATOM     19  CB  LYS A   1       6.502   6.655  44.261  0.00  0.00    +0.026 C 
BRANCH  19  20
ATOM     20  CG  LYS A   1       5.394   7.497  44.917  0.00  0.00    -0.000 C 
BRANCH  20  21
ATOM     21  CD  LYS A   1       5.101   6.968  46.337  0.00  0.00    -0.024 C 
BRANCH  21  22
ATOM     22  CE  LYS A   1       3.958   7.686  47.031  0.00  0.00    -0.086 C 
BRANCH  22  23
ATOM     23  NZ  LYS A   1       4.263   9.121  47.310  0.00  0.00    +0.380 N 
ATOM     24  HZ1 LYS A   1       5.099   9.183  47.925  0.00  0.00    -0.089 HD
ATOM     25  HZ2 LYS A   1       3.449   9.561  47.784  0.00  0.00    -0.089 HD
ATOM     26  HZ3 LYS A   1       4.453   9.614  46.414  0.00  0.00    -0.089 HD
ENDBRANCH  22  23
ENDBRANCH  21  22
ENDBRANCH  20  21
ENDBRANCH  19  20
ENDBRANCH  16  19
ENDBRANCH  12  16
ENDBRANCH  11  13
BRANCH  11  27
ATOM     27  CB  ILE A   2      11.757   6.680  41.903  0.00  0.00    +0.027 C 
ATOM     28  CG2 ILE A   2      12.928   5.823  41.428  0.00  0.00    +0.002 C 
BRANCH  27  29
ATOM     29  CG1 ILE A   2      11.435   7.767  40.867  0.00  0.00    +0.002 C 
ATOM     30  CD1 ILE A   2      12.490   8.859  40.746  0.00  0.00    +0.000 C 
ENDBRANCH  27  29
ENDBRANCH  11  27
ENDBRANCH   7  11
ENDBRANCH   6   9
BRANCH   6  31
ATOM     31  CB  CYS A   3      10.174   1.559  44.171  0.00  0.00    +0.098 C 
ATOM     32  SG  CYS A   3       9.968   0.375  42.841  0.00  0.00    -0.080 S 
ENDBRANCH   6  31
ENDBRANCH   2   6
ENDBRANCH   1   3
BRANCH   1  33
ATOM     33  C   ASP A   4      15.468   1.028  44.415  0.00  0.00    +0.241 C 
ATOM     34  N   PHE A   5      15.946   1.462  45.580  0.00  0.00    -0.297 N 
ATOM     35  H   PHE A   5      15.428   1.234  46.452  0.00  0.00    +0.150 HD
ATOM     36  O   ASP A   4      16.000   1.257  43.326  0.00  0.00    -0.273 OA
BRANCH  34  37
ATOM     37  CA  PHE A   5      17.172   2.247  45.674  0.00  0.00    +0.153 C 
BRANCH  37  38
ATOM     38  C   PHE A   5      18.370   1.388  46.059  0.00  0.00    +0.241 C 
ATOM     39  O   PHE A   5      19.385   1.897  46.546  0.00  0.00    -0.273 OA
ATOM     40  N   GLY A   6      18.249   0.080  45.816  0.00  0.00    -0.295 N 
ATOM     41  H   GLY A   6      17.368  -0.270  45.389  0.00  0.00    +0.150 HD
BRANCH  40  42
ATOM     42  CA  GLY A   6      19.309  -0.879  46.128  0.00  0.00    +0.176 C 
BRANCH  42  43
ATOM     43  C   GLY A   6      20.612  -0.588  45.403  0.00  0.00    +0.243 C 
ATOM     44  O   GLY A   6      21.694  -0.708  45.991  0.00  0.00    -0.273 OA
ATOM     45  N   LEU A   7      20.520  -0.191  44.132  0.00  0.00    -0.298 N 
ATOM     46  H   LEU A   7      19.585  -0.128  43.682  0.00  0.00    +0.150 HD
BRANCH  45  47
ATOM     47  CA  LEU A   7      21.712   0.156  43.364  0.00  0.00    +0.137 C 
BRANCH  47  48
ATOM     48  C   LEU A   7      22.134   1.621  43.533  0.00  0.00    +0.227 C 
ATOM     49  O   LEU A   7      23.118   2.061  42.934  0.00  0.00    -0.286 OA
ENDBRANCH  47  48
BRANCH  47  50
ATOM     50  CB  LEU A   7      21.540  -0.203  41.883  0.00  0.00    +0.028 C 
BRANCH  50  51
ATOM     51  CG  LEU A   7      21.596  -1.692  41.487  0.00  0.00    +0.002 C 
ATOM     52  CD2 LEU A   7      22.958  -2.328  41.803  0.00  0.00    +0.000 C 
ATOM     53  CD1 LEU A   7      21.260  -1.863  40.027  0.00  0.00    +0.000 C 
ENDBRANCH  50  51
ENDBRANCH  47  50
ENDBRANCH  45  47
ENDBRANCH  42  43
ENDBRANCH  40  42
ENDBRANCH  37  38
BRANCH  37  54
ATOM     54  CB  PHE A   5      16.992   3.421  46.644  0.00  0.00    +0.055 C 
BRANCH  54  55
ATOM     55  CG  PHE A   5      16.260   4.601  46.046  0.00  0.00    -0.020 A 
ATOM     56  CD2 PHE A   5      16.934   5.789  45.783  0.00  0.00    -0.004 A 
ATOM     57  CE2 PHE A   5      16.277   6.876  45.235  0.00  0.00    -0.000 A 
ATOM     58  CZ  PHE A   5      14.928   6.797  44.949  0.00  0.00    -0.000 A 
ATOM     59  CE1 PHE A   5      14.225   5.618  45.201  0.00  0.00    -0.000 A 
ATOM     60  CD1 PHE A   5      14.898   4.524  45.752  0.00  0.00    -0.004 A 
ENDBRANCH  54  55
ENDBRANCH  37  54
ENDBRANCH  34  37
ENDBRANCH   1  33
BRANCH   1  61
ATOM     61  CB  ASP A   4      14.086  -0.743  43.284  0.00  0.00    +0.143 C 
BRANCH  61  62
ATOM     62  CG  ASP A   4      15.126  -1.849  43.298  0.00  0.00    +0.367 C 
ATOM     63  OD2 ASP A   4      16.042  -1.786  44.153  0.00  0.00    -0.246 OA
ATOM     64  OD1 ASP A   4      15.021  -2.778  42.456  0.00  0.00    -0.246 OA
ENDBRANCH  61  62
ENDBRANCH   1  61
TORSDOF 28
REMARK  Name = ../refined-set-2016/3i60/3i60_pocket.pdb
REMARK  233 active torsions:
REMARK  status: ('A' for Active; 'I' for Inactive)
REMARK    1  A    between atoms: _1  and  _3
REMARK    2  A    between atoms: _3  and  _4
REMARK    3  A    between atoms: _3  and  _6
REMARK    4  A    between atoms: _6  and  _7
REMARK    5  A    between atoms: _9  and  _11
REMARK    6  A    between atoms: _11  and  _12
REMARK    7  A    between atoms: _11  and  _14
REMARK    8  A    between atoms: _14  and  _15
REMARK    9  A    between atoms: _20  and  _21
REMARK   10  A    between atoms: _23  and  _25
REMARK   11  A    between atoms: _25  and  _26
REMARK   12  A    between atoms: _25  and  _28
REMARK   13  A    between atoms: _28  and  _29
REMARK   14  A    between atoms: _32  and  _34
REMARK   15  A    between atoms: _34  and  _35
REMARK   16  A    between atoms: _37  and  _39
REMARK   17  A    between atoms: _39  and  _40
REMARK   18  A    between atoms: _39  and  _42
REMARK   19  A    between atoms: _42  and  _43
REMARK   20  A    between atoms: _43  and  _44
REMARK   21  A    between atoms: _47  and  _49
REMARK   22  A    between atoms: _49  and  _50
REMARK   23  A    between atoms: _52  and  _54
REMARK   24  A    between atoms: _54  and  _55
REMARK   25  A    between atoms: _58  and  _60
REMARK   26  A    between atoms: _60  and  _61
REMARK   27  A    between atoms: _60  and  _63
REMARK   28  A    between atoms: _63  and  _64
REMARK   29  A    between atoms: _69  and  _70
REMARK   30  A    between atoms: _72  and  _74
REMARK   31  A    between atoms: _74  and  _75
REMARK   32  A    between atoms: _77  and  _79
REMARK   33  A    between atoms: _79  and  _80
REMARK   34  A    between atoms: _79  and  _82
REMARK   35  A    between atoms: _82  and  _83
REMARK   36  A    between atoms: _83  and  _84
REMARK   37  A    between atoms: _86  and  _88
REMARK   38  A    between atoms: _88  and  _89
REMARK   39  A    between atoms: _88  and  _91
REMARK   40  A    between atoms: _94  and  _96
REMARK   41  A    between atoms: _96  and  _97
REMARK   42  A    between atoms: _96  and  _99
REMARK   43  A    between atoms: _101  and  _103
REMARK   44  A    between atoms: _103  and  _104
REMARK   45  A    between atoms: _103  and  _106
REMARK   46  A    between atoms: _106  and  _107
REMARK   47  A    between atoms: _109  and  _111
REMARK   48  A    between atoms: _111  and  _112
REMARK   49  A    between atoms: _111  and  _114
REMARK   50  A    between atoms: _114  and  _115
REMARK   51  A    between atoms: _115  and  _116
REMARK   52  A    between atoms: _116  and  _117
REMARK   53  A    between atoms: _126  and  _128
REMARK   54  A    between atoms: _128  and  _129
REMARK   55  A    between atoms: _128  and  _131
REMARK   56  A    between atoms: _134  and  _136
REMARK   57  A    between atoms: _136  and  _137
REMARK   58  A    between atoms: _140  and  _142
REMARK   59  A    between atoms: _142  and  _143
REMARK   60  A    between atoms: _142  and  _145
REMARK   61  A    between atoms: _145  and  _146
REMARK   62  A    between atoms: _149  and  _151
REMARK   63  A    between atoms: _151  and  _152
REMARK   64  A    between atoms: _151  and  _154
REMARK   65  A    between atoms: _154  and  _155
REMARK   66  A    between atoms: _155  and  _156
REMARK   67  A    between atoms: _156  and  _157
REMARK   68  A    between atoms: _157  and  _158
REMARK   69  A    between atoms: _162  and  _164
REMARK   70  A    between atoms: _164  and  _165
REMARK   71  A    between atoms: _164  and  _167
REMARK   72  A    between atoms: _167  and  _168
REMARK   73  A    between atoms: _168  and  _169
REMARK   74  A    between atoms: _169  and  _170
REMARK   75  A    between atoms: _170  and  _171
REMARK   76  A    between atoms: _175  and  _177
REMARK   77  A    between atoms: _177  and  _178
REMARK   78  A    between atoms: _177  and  _180
REMARK   79  A    between atoms: _180  and  _181
REMARK   80  A    between atoms: _184  and  _186
REMARK   81  A    between atoms: _186  and  _187
REMARK   82  A    between atoms: _186  and  _189
REMARK   83  A    between atoms: _189  and  _190
REMARK   84  A    between atoms: _192  and  _194
REMARK   85  A    between atoms: _194  and  _195
REMARK   86  A    between atoms: _194  and  _197
REMARK   87  A    between atoms: _197  and  _198
REMARK   88  A    between atoms: _198  and  _199
REMARK   89  A    between atoms: _199  and  _200
REMARK   90  A    between atoms: _209  and  _211
REMARK   91  A    between atoms: _211  and  _212
REMARK   92  A    between atoms: _211  and  _214
REMARK   93  A    between atoms: _214  and  _215
REMARK   94  A    between atoms: _218  and  _220
REMARK   95  A    between atoms: _220  and  _221
REMARK   96  A    between atoms: _220  and  _223
REMARK   97  A    between atoms: _223  and  _224
REMARK   98  A    between atoms: _224  and  _225
REMARK   99  A    between atoms: _228  and  _230
REMARK  100  A    between atoms: _230  and  _231
REMARK  101  A    between atoms: _230  and  _233
REMARK  102  A    between atoms: _233  and  _234
REMARK  103  A    between atoms: _237  and  _239
REMARK  104  A    between atoms: _239  and  _240
REMARK  105  A    between atoms: _239  and  _242
REMARK  106  A    between atoms: _242  and  _243
REMARK  107  A    between atoms: _246  and  _248
REMARK  108  A    between atoms: _248  and  _249
REMARK  109  A    between atoms: _251  and  _253
REMARK  110  A    between atoms: _253  and  _254
REMARK  111  A    between atoms: _253  and  _256
REMARK  112  A    between atoms: _259  and  _261
REMARK  113  A    between atoms: _261  and  _262
REMARK  114  A    between atoms: _261  and  _264
REMARK  115  A    between atoms: _264  and  _265
REMARK  116  A    between atoms: _268  and  _270
REMARK  117  A    between atoms: _270  and  _271
REMARK  118  A    between atoms: _270  and  _273
REMARK  119  A    between atoms: _276  and  _278
REMARK  120  A    between atoms: _278  and  _279
REMARK  121  A    between atoms: _278  and  _281
REMARK  122  A    between atoms: _281  and  _282
REMARK  123  A    between atoms: _282  and  _283
REMARK  124  A    between atoms: _288  and  _290
REMARK  125  A    between atoms: _290  and  _291
REMARK  126  A    between atoms: _290  and  _293
REMARK  127  A    between atoms: _293  and  _294
REMARK  128  A    between atoms: _297  and  _299
REMARK  129  A    between atoms: _299  and  _300
REMARK  130  A    between atoms: _299  and  _302
REMARK  131  A    between atoms: _302  and  _303
REMARK  132  A    between atoms: _306  and  _308
REMARK  133  A    between atoms: _308  and  _309
REMARK  134  A    between atoms: _308  and  _311
REMARK  135  A    between atoms: _311  and  _312
REMARK  136  A    between atoms: _312  and  _313
REMARK  137  A    between atoms: _315  and  _317
REMARK  138  A    between atoms: _317  and  _318
REMARK  139  A    between atoms: _317  and  _320
REMARK  140  A    between atoms: _320  and  _321
REMARK  141  A    between atoms: _321  and  _322
REMARK  142  A    between atoms: _325  and  _327
REMARK  143  A    between atoms: _327  and  _328
REMARK  144  A    between atoms: _327  and  _330
REMARK  145  A    between atoms: _330  and  _331
REMARK  146  A    between atoms: _334  and  _336
REMARK  147  A    between atoms: _336  and  _337
REMARK  148  A    between atoms: _336  and  _339
REMARK  149  A    between atoms: _339  and  _340
REMARK  150  A    between atoms: _343  and  _345
REMARK  151  A    between atoms: _345  and  _346
REMARK  152  A    between atoms: _345  and  _348
REMARK  153  A    between atoms: _348  and  _349
REMARK  154  A    between atoms: _352  and  _354
REMARK  155  A    between atoms: _354  and  _355
REMARK  156  A    between atoms: _354  and  _357
REMARK  157  A    between atoms: _357  and  _358
REMARK  158  A    between atoms: _363  and  _364
REMARK  159  A    between atoms: _366  and  _368
REMARK  160  A    between atoms: _368  and  _369
REMARK  161  A    between atoms: _368  and  _371
REMARK  162  A    between atoms: _371  and  _372
REMARK  163  A    between atoms: _372  and  _373
REMARK  164  A    between atoms: _373  and  _374
REMARK  165  A    between atoms: _374  and  _375
REMARK  166  A    between atoms: _379  and  _381
REMARK  167  A    between atoms: _381  and  _382
REMARK  168  A    between atoms: _381  and  _384
REMARK  169  A    between atoms: _384  and  _385
REMARK  170  A    between atoms: _388  and  _390
REMARK  171  A    between atoms: _390  and  _391
REMARK  172  A    between atoms: _390  and  _393
REMARK  173  A    between atoms: _393  and  _394
REMARK  174  A    between atoms: _397  and  _399
REMARK  175  A    between atoms: _399  and  _400
REMARK  176  A    between atoms: _399  and  _402
REMARK  177  A    between atoms: _402  and  _403
REMARK  178  A    between atoms: _403  and  _404
REMARK  179  A    between atoms: _404  and  _405
REMARK  180  A    between atoms: _405  and  _406
REMARK  181  A    between atoms: _411  and  _412
REMARK  182  A    between atoms: _417  and  _419
REMARK  183  A    between atoms: _419  and  _420
REMARK  184  A    between atoms: _419  and  _422
REMARK  185  A    between atoms: _422  and  _423
REMARK  186  A    between atoms: _425  and  _427
REMARK  187  A    between atoms: _427  and  _428
REMARK  188  A    between atoms: _427  and  _430
REMARK  189  A    between atoms: _430  and  _431
REMARK  190  A    between atoms: _436  and  _438
REMARK  191  A    between atoms: _438  and  _439
REMARK  192  A    between atoms: _438  and  _441
REMARK  193  A    between atoms: _441  and  _442
REMARK  194  A    between atoms: _445  and  _447
REMARK  195  A    between atoms: _447  and  _448
REMARK  196  A    between atoms: _447  and  _450
REMARK  197  A    between atoms: _450  and  _451
REMARK  198  A    between atoms: _454  and  _456
REMARK  199  A    between atoms: _456  and  _457
REMARK  200  A    between atoms: _456  and  _459
REMARK  201  A    between atoms: _459  and  _460
REMARK  202  A    between atoms: _463  and  _465
REMARK  203  A    between atoms: _465  and  _466
REMARK  204  A    between atoms: _465  and  _468
REMARK  205  A    between atoms: _468  and  _469
REMARK  206  A    between atoms: _469  and  _470
REMARK  207  A    between atoms: _470  and  _471
REMARK  208  A    between atoms: _471  and  _472
REMARK  209  A    between atoms: _476  and  _478
REMARK  210  A    between atoms: _478  and  _479
REMARK  211  A    between atoms: _478  and  _481
REMARK  212  A    between atoms: _481  and  _482
REMARK  213  A    between atoms: _485  and  _487
REMARK  214  A    between atoms: _487  and  _488
REMARK  215  A    between atoms: _487  and  _490
REMARK  216  A    between atoms: _492  and  _494
REMARK  217  A    between atoms: _494  and  _495
REMARK  218  A    between atoms: _494  and  _497
REMARK  219  A    between atoms: _497  and  _498
REMARK  220  A    between atoms: _501  and  _503
REMARK  221  A    between atoms: _503  and  _504
REMARK  222  A    between atoms: _503  and  _506
REMARK  223  A    between atoms: _506  and  _507
REMARK  224  A    between atoms: _513  and  _515
REMARK  225  A    between atoms: _515  and  _516
REMARK  226  A    between atoms: _518  and  _520
REMARK  227  A    between atoms: _520  and  _521
REMARK  228  A    between atoms: _520  and  _523
REMARK  229  A    between atoms: _523  and  _524
REMARK  230  A    between atoms: _527  and  _529
REMARK  231  A    between atoms: _529  and  _530
REMARK  232  A    between atoms: _529  and  _532
REMARK  233  A    between atoms: _532  and  _533
REMARK                            x       y       z     vdW  Elec       q    Type
REMARK                         _______ _______ _______ _____ _____    ______ ____
ROOT
ATOM      1  CA  THR A   1      19.019  -3.709  33.557  0.00  0.00    +0.160 C 
ENDROOT
BRANCH   1   2
ATOM      2  N   THR A   1      19.817  -2.987  34.545  0.00  0.00    -0.237 NA
ATOM      3  H   THR A   1      19.496  -2.049  34.860  0.00  0.00    +0.142 HD
ENDBRANCH   1   2
BRANCH   1   4
ATOM      4  CB  THR A   1      17.511  -3.475  33.742  0.00  0.00    +0.134 C 
ATOM      5  CG2 THR A   1      16.709  -4.400  32.825  0.00  0.00    +0.034 C 
BRANCH   4   6
ATOM      6  OG1 THR A   1      17.157  -3.732  35.108  0.00  0.00    -0.383 OA
ATOM      7  HG1 THR A   1      17.663  -3.121  35.700  0.00  0.00    +0.210 HD
ENDBRANCH   4   6
ENDBRANCH   1   4
BRANCH   1   8
ATOM      8  C   THR A   1      19.450  -3.271  32.159  0.00  0.00    +0.227 C 
ATOM      9  O   THR A   1      19.376  -2.080  31.811  0.00  0.00    -0.287 OA
ENDBRANCH   1   8
TORSDOF 4
REMARK  Name = ../refined-set-2016/3i60/3i60_pocket.pdb
REMARK  233 active torsions:
REMARK  status: ('A' for Active; 'I' for Inactive)
REMARK    1  A    between atoms: _1  and  _3
REMARK    2  A    between atoms: _3  and  _4
REMARK    3  A    between atoms: _3  and  _6
REMARK    4  A    between atoms: _6  and  _7
REMARK    5  A    between atoms: _9  and  _11
REMARK    6  A    between atoms: _11  and  _12
REMARK    7  A    between atoms: _11  and  _14
REMARK    8  A    between atoms: _14  and  _15
REMARK    9  A    between atoms: _20  and  _21
REMARK   10  A    between atoms: _23  and  _25
REMARK   11  A    between atoms: _25  and  _26
REMARK   12  A    between atoms: _25  and  _28
REMARK   13  A    between atoms: _28  and  _29
REMARK   14  A    between atoms: _32  and  _34
REMARK   15  A    between atoms: _34  and  _35
REMARK   16  A    between atoms: _37  and  _39
REMARK   17  A    between atoms: _39  and  _40
REMARK   18  A    between atoms: _39  and  _42
REMARK   19  A    between atoms: _42  and  _43
REMARK   20  A    between atoms: _43  and  _44
REMARK   21  A    between atoms: _47  and  _49
REMARK   22  A    between atoms: _49  and  _50
REMARK   23  A    between atoms: _52  and  _54
REMARK   24  A    between atoms: _54  and  _55
REMARK   25  A    between atoms: _58  and  _60
REMARK   26  A    between atoms: _60  and  _61
REMARK   27  A    between atoms: _60  and  _63
REMARK   28  A    between atoms: _63  and  _64
REMARK   29  A    between atoms: _69  and  _70
REMARK   30  A    between atoms: _72  and  _74
REMARK   31  A    between atoms: _74  and  _75
REMARK   32  A    between atoms: _77  and  _79
REMARK   33  A    between atoms: _79  and  _80
REMARK   34  A    between atoms: _79  and  _82
REMARK   35  A    between atoms: _82  and  _83
REMARK   36  A    between atoms: _83  and  _84
REMARK   37  A    between atoms: _86  and  _88
REMARK   38  A    between atoms: _88  and  _89
REMARK   39  A    between atoms: _88  and  _91
REMARK   40  A    between atoms: _94  and  _96
REMARK   41  A    between atoms: _96  and  _97
REMARK   42  A    between atoms: _96  and  _99
REMARK   43  A    between atoms: _101  and  _103
REMARK   44  A    between atoms: _103  and  _104
REMARK   45  A    between atoms: _103  and  _106
REMARK   46  A    between atoms: _106  and  _107
REMARK   47  A    between atoms: _109  and  _111
REMARK   48  A    between atoms: _111  and  _112
REMARK   49  A    between atoms: _111  and  _114
REMARK   50  A    between atoms: _114  and  _115
REMARK   51  A    between atoms: _115  and  _116
REMARK   52  A    between atoms: _116  and  _117
REMARK   53  A    between atoms: _126  and  _128
REMARK   54  A    between atoms: _128  and  _129
REMARK   55  A    between atoms: _128  and  _131
REMARK   56  A    between atoms: _134  and  _136
REMARK   57  A    between atoms: _136  and  _137
REMARK   58  A    between atoms: _140  and  _142
REMARK   59  A    between atoms: _142  and  _143
REMARK   60  A    between atoms: _142  and  _145
REMARK   61  A    between atoms: _145  and  _146
REMARK   62  A    between atoms: _149  and  _151
REMARK   63  A    between atoms: _151  and  _152
REMARK   64  A    between atoms: _151  and  _154
REMARK   65  A    between atoms: _154  and  _155
REMARK   66  A    between atoms: _155  and  _156
REMARK   67  A    between atoms: _156  and  _157
REMARK   68  A    between atoms: _157  and  _158
REMARK   69  A    between atoms: _162  and  _164
REMARK   70  A    between atoms: _164  and  _165
REMARK   71  A    between atoms: _164  and  _167
REMARK   72  A    between atoms: _167  and  _168
REMARK   73  A    between atoms: _168  and  _169
REMARK   74  A    between atoms: _169  and  _170
REMARK   75  A    between atoms: _170  and  _171
REMARK   76  A    between atoms: _175  and  _177
REMARK   77  A    between atoms: _177  and  _178
REMARK   78  A    between atoms: _177  and  _180
REMARK   79  A    between atoms: _180  and  _181
REMARK   80  A    between atoms: _184  and  _186
REMARK   81  A    between atoms: _186  and  _187
REMARK   82  A    between atoms: _186  and  _189
REMARK   83  A    between atoms: _189  and  _190
REMARK   84  A    between atoms: _192  and  _194
REMARK   85  A    between atoms: _194  and  _195
REMARK   86  A    between atoms: _194  and  _197
REMARK   87  A    between atoms: _197  and  _198
REMARK   88  A    between atoms: _198  and  _199
REMARK   89  A    between atoms: _199  and  _200
REMARK   90  A    between atoms: _209  and  _211
REMARK   91  A    between atoms: _211  and  _212
REMARK   92  A    between atoms: _211  and  _214
REMARK   93  A    between atoms: _214  and  _215
REMARK   94  A    between atoms: _218  and  _220
REMARK   95  A    between atoms: _220  and  _221
REMARK   96  A    between atoms: _220  and  _223
REMARK   97  A    between atoms: _223  and  _224
REMARK   98  A    between atoms: _224  and  _225
REMARK   99  A    between atoms: _228  and  _230
REMARK  100  A    between atoms: _230  and  _231
REMARK  101  A    between atoms: _230  and  _233
REMARK  102  A    between atoms: _233  and  _234
REMARK  103  A    between atoms: _237  and  _239
REMARK  104  A    between atoms: _239  and  _240
REMARK  105  A    between atoms: _239  and  _242
REMARK  106  A    between atoms: _242  and  _243
REMARK  107  A    between atoms: _246  and  _248
REMARK  108  A    between atoms: _248  and  _249
REMARK  109  A    between atoms: _251  and  _253
REMARK  110  A    between atoms: _253  and  _254
REMARK  111  A    between atoms: _253  and  _256
REMARK  112  A    between atoms: _259  and  _261
REMARK  113  A    between atoms: _261  and  _262
REMARK  114  A    between atoms: _261  and  _264
REMARK  115  A    between atoms: _264  and  _265
REMARK  116  A    between atoms: _268  and  _270
REMARK  117  A    between atoms: _270  and  _271
REMARK  118  A    between atoms: _270  and  _273
REMARK  119  A    between atoms: _276  and  _278
REMARK  120  A    between atoms: _278  and  _279
REMARK  121  A    between atoms: _278  and  _281
REMARK  122  A    between atoms: _281  and  _282
REMARK  123  A    between atoms: _282  and  _283
REMARK  124  A    between atoms: _288  and  _290
REMARK  125  A    between atoms: _290  and  _291
REMARK  126  A    between atoms: _290  and  _293
REMARK  127  A    between atoms: _293  and  _294
REMARK  128  A    between atoms: _297  and  _299
REMARK  129  A    between atoms: _299  and  _300
REMARK  130  A    between atoms: _299  and  _302
REMARK  131  A    between atoms: _302  and  _303
REMARK  132  A    between atoms: _306  and  _308
REMARK  133  A    between atoms: _308  and  _309
REMARK  134  A    between atoms: _308  and  _311
REMARK  135  A    between atoms: _311  and  _312
REMARK  136  A    between atoms: _312  and  _313
REMARK  137  A    between atoms: _315  and  _317
REMARK  138  A    between atoms: _317  and  _318
REMARK  139  A    between atoms: _317  and  _320
REMARK  140  A    between atoms: _320  and  _321
REMARK  141  A    between atoms: _321  and  _322
REMARK  142  A    between atoms: _325  and  _327
REMARK  143  A    between atoms: _327  and  _328
REMARK  144  A    between atoms: _327  and  _330
REMARK  145  A    between atoms: _330  and  _331
REMARK  146  A    between atoms: _334  and  _336
REMARK  147  A    between atoms: _336  and  _337
REMARK  148  A    between atoms: _336  and  _339
REMARK  149  A    between atoms: _339  and  _340
REMARK  150  A    between atoms: _343  and  _345
REMARK  151  A    between atoms: _345  and  _346
REMARK  152  A    between atoms: _345  and  _348
REMARK  153  A    between atoms: _348  and  _349
REMARK  154  A    between atoms: _352  and  _354
REMARK  155  A    between atoms: _354  and  _355
REMARK  156  A    between atoms: _354  and  _357
REMARK  157  A    between atoms: _357  and  _358
REMARK  158  A    between atoms: _363  and  _364
REMARK  159  A    between atoms: _366  and  _368
REMARK  160  A    between atoms: _368  and  _369
REMARK  161  A    between atoms: _368  and  _371
REMARK  162  A    between atoms: _371  and  _372
REMARK  163  A    between atoms: _372  and  _373
REMARK  164  A    between atoms: _373  and  _374
REMARK  165  A    between atoms: _374  and  _375
REMARK  166  A    between atoms: _379  and  _381
REMARK  167  A    between atoms: _381  and  _382
REMARK  168  A    between atoms: _381  and  _384
REMARK  169  A    between atoms: _384  and  _385
REMARK  170  A    between atoms: _388  and  _390
REMARK  171  A    between atoms: _390  and  _391
REMARK  172  A    between atoms: _390  and  _393
REMARK  173  A    between atoms: _393  and  _394
REMARK  174  A    between atoms: _397  and  _399
REMARK  175  A    between atoms: _399  and  _400
REMARK  176  A    between atoms: _399  and  _402
REMARK  177  A    between atoms: _402  and  _403
REMARK  178  A    between atoms: _403  and  _404
REMARK  179  A    between atoms: _404  and  _405
REMARK  180  A    between atoms: _405  and  _406
REMARK  181  A    between atoms: _411  and  _412
REMARK  182  A    between atoms: _417  and  _419
REMARK  183  A    between atoms: _419  and  _420
REMARK  184  A    between atoms: _419  and  _422
REMARK  185  A    between atoms: _422  and  _423
REMARK  186  A    between atoms: _425  and  _427
REMARK  187  A    between atoms: _427  and  _428
REMARK  188  A    between atoms: _427  and  _430
REMARK  189  A    between atoms: _430  and  _431
REMARK  190  A    between atoms: _436  and  _438
REMARK  191  A    between atoms: _438  and  _439
REMARK  192  A    between atoms: _438  and  _441
REMARK  193  A    between atoms: _441  and  _442
REMARK  194  A    between atoms: _445  and  _447
REMARK  195  A    between atoms: _447  and  _448
REMARK  196  A    between atoms: _447  and  _450
REMARK  197  A    between atoms: _450  and  _451
REMARK  198  A    between atoms: _454  and  _456
REMARK  199  A    between atoms: _456  and  _457
REMARK  200  A    between atoms: _456  and  _459
REMARK  201  A    between atoms: _459  and  _460
REMARK  202  A    between atoms: _463  and  _465
REMARK  203  A    between atoms: _465  and  _466
REMARK  204  A    between atoms: _465  and  _468
REMARK  205  A    between atoms: _468  and  _469
REMARK  206  A    between atoms: _469  and  _470
REMARK  207  A    between atoms: _470  and  _471
REMARK  208  A    between atoms: _471  and  _472
REMARK  209  A    between atoms: _476  and  _478
REMARK  210  A    between atoms: _478  and  _479
REMARK  211  A    between atoms: _478  and  _481
REMARK  212  A    between atoms: _481  and  _482
REMARK  213  A    between atoms: _485  and  _487
REMARK  214  A    between atoms: _487  and  _488
REMARK  215  A    between atoms: _487  and  _490
REMARK  216  A    between atoms: _492  and  _494
REMARK  217  A    between atoms: _494  and  _495
REMARK  218  A    between atoms: _494  and  _497
REMARK  219  A    between atoms: _497  and  _498
REMARK  220  A    between atoms: _501  and  _503
REMARK  221  A    between atoms: _503  and  _504
REMARK  222  A    between atoms: _503  and  _506
REMARK  223  A    between atoms: _506  and  _507
REMARK  224  A    between atoms: _513  and  _515
REMARK  225  A    between atoms: _515  and  _516
REMARK  226  A    between atoms: _518  and  _520
REMARK  227  A    between atoms: _520  and  _521
REMARK  228  A    between atoms: _520  and  _523
REMARK  229  A    between atoms: _523  and  _524
REMARK  230  A    between atoms: _527  and  _529
REMARK  231  A    between atoms: _529  and  _530
REMARK  232  A    between atoms: _529  and  _532
REMARK  233  A    between atoms: _532  and  _533
REMARK                            x       y       z     vdW  Elec       q    Type
REMARK                         _______ _______ _______ _____ _____    ______ ____
ROOT
ATOM      1  O   HOH     1       7.179  -5.866  37.445  0.00  0.00    +0.000 OA
ENDROOT
TORSDOF 0
REMARK  Name = ../refined-set-2016/3i60/3i60_pocket.pdb
REMARK  233 active torsions:
REMARK  status: ('A' for Active; 'I' for Inactive)
REMARK    1  A    between atoms: _1  and  _3
REMARK    2  A    between atoms: _3  and  _4
REMARK    3  A    between atoms: _3  and  _6
REMARK    4  A    between atoms: _6  and  _7
REMARK    5  A    between atoms: _9  and  _11
REMARK    6  A    between atoms: _11  and  _12
REMARK    7  A    between atoms: _11  and  _14
REMARK    8  A    between atoms: _14  and  _15
REMARK    9  A    between atoms: _20  and  _21
REMARK   10  A    between atoms: _23  and  _25
REMARK   11  A    between atoms: _25  and  _26
REMARK   12  A    between atoms: _25  and  _28
REMARK   13  A    between atoms: _28  and  _29
REMARK   14  A    between atoms: _32  and  _34
REMARK   15  A    between atoms: _34  and  _35
REMARK   16  A    between atoms: _37  and  _39
REMARK   17  A    between atoms: _39  and  _40
REMARK   18  A    between atoms: _39  and  _42
REMARK   19  A    between atoms: _42  and  _43
REMARK   20  A    between atoms: _43  and  _44
REMARK   21  A    between atoms: _47  and  _49
REMARK   22  A    between atoms: _49  and  _50
REMARK   23  A    between atoms: _52  and  _54
REMARK   24  A    between atoms: _54  and  _55
REMARK   25  A    between atoms: _58  and  _60
REMARK   26  A    between atoms: _60  and  _61
REMARK   27  A    between atoms: _60  and  _63
REMARK   28  A    between atoms: _63  and  _64
REMARK   29  A    between atoms: _69  and  _70
REMARK   30  A    between atoms: _72  and  _74
REMARK   31  A    between atoms: _74  and  _75
REMARK   32  A    between atoms: _77  and  _79
REMARK   33  A    between atoms: _79  and  _80
REMARK   34  A    between atoms: _79  and  _82
REMARK   35  A    between atoms: _82  and  _83
REMARK   36  A    between atoms: _83  and  _84
REMARK   37  A    between atoms: _86  and  _88
REMARK   38  A    between atoms: _88  and  _89
REMARK   39  A    between atoms: _88  and  _91
REMARK   40  A    between atoms: _94  and  _96
REMARK   41  A    between atoms: _96  and  _97
REMARK   42  A    between atoms: _96  and  _99
REMARK   43  A    between atoms: _101  and  _103
REMARK   44  A    between atoms: _103  and  _104
REMARK   45  A    between atoms: _103  and  _106
REMARK   46  A    between atoms: _106  and  _107
REMARK   47  A    between atoms: _109  and  _111
REMARK   48  A    between atoms: _111  and  _112
REMARK   49  A    between atoms: _111  and  _114
REMARK   50  A    between atoms: _114  and  _115
REMARK   51  A    between atoms: _115  and  _116
REMARK   52  A    between atoms: _116  and  _117
REMARK   53  A    between atoms: _126  and  _128
REMARK   54  A    between atoms: _128  and  _129
REMARK   55  A    between atoms: _128  and  _131
REMARK   56  A    between atoms: _134  and  _136
REMARK   57  A    between atoms: _136  and  _137
REMARK   58  A    between atoms: _140  and  _142
REMARK   59  A    between atoms: _142  and  _143
REMARK   60  A    between atoms: _142  and  _145
REMARK   61  A    between atoms: _145  and  _146
REMARK   62  A    between atoms: _149  and  _151
REMARK   63  A    between atoms: _151  and  _152
REMARK   64  A    between atoms: _151  and  _154
REMARK   65  A    between atoms: _154  and  _155
REMARK   66  A    between atoms: _155  and  _156
REMARK   67  A    between atoms: _156  and  _157
REMARK   68  A    between atoms: _157  and  _158
REMARK   69  A    between atoms: _162  and  _164
REMARK   70  A    between atoms: _164  and  _165
REMARK   71  A    between atoms: _164  and  _167
REMARK   72  A    between atoms: _167  and  _168
REMARK   73  A    between atoms: _168  and  _169
REMARK   74  A    between atoms: _169  and  _170
REMARK   75  A    between atoms: _170  and  _171
REMARK   76  A    between atoms: _175  and  _177
REMARK   77  A    between atoms: _177  and  _178
REMARK   78  A    between atoms: _177  and  _180
REMARK   79  A    between atoms: _180  and  _181
REMARK   80  A    between atoms: _184  and  _186
REMARK   81  A    between atoms: _186  and  _187
REMARK   82  A    between atoms: _186  and  _189
REMARK   83  A    between atoms: _189  and  _190
REMARK   84  A    between atoms: _192  and  _194
REMARK   85  A    between atoms: _194  and  _195
REMARK   86  A    between atoms: _194  and  _197
REMARK   87  A    between atoms: _197  and  _198
REMARK   88  A    between atoms: _198  and  _199
REMARK   89  A    between atoms: _199  and  _200
REMARK   90  A    between atoms: _209  and  _211
REMARK   91  A    between atoms: _211  and  _212
REMARK   92  A    between atoms: _211  and  _214
REMARK   93  A    between atoms: _214  and  _215
REMARK   94  A    between atoms: _218  and  _220
REMARK   95  A    between atoms: _220  and  _221
REMARK   96  A    between atoms: _220  and  _223
REMARK   97  A    between atoms: _223  and  _224
REMARK   98  A    between atoms: _224  and  _225
REMARK   99  A    between atoms: _228  and  _230
REMARK  100  A    between atoms: _230  and  _231
REMARK  101  A    between atoms: _230  and  _233
REMARK  102  A    between atoms: _233  and  _234
REMARK  103  A    between atoms: _237  and  _239
REMARK  104  A    between atoms: _239  and  _240
REMARK  105  A    between atoms: _239  and  _242
REMARK  106  A    between atoms: _242  and  _243
REMARK  107  A    between atoms: _246  and  _248
REMARK  108  A    between atoms: _248  and  _249
REMARK  109  A    between atoms: _251  and  _253
REMARK  110  A    between atoms: _253  and  _254
REMARK  111  A    between atoms: _253  and  _256
REMARK  112  A    between atoms: _259  and  _261
REMARK  113  A    between atoms: _261  and  _262
REMARK  114  A    between atoms: _261  and  _264
REMARK  115  A    between atoms: _264  and  _265
REMARK  116  A    between atoms: _268  and  _270
REMARK  117  A    between atoms: _270  and  _271
REMARK  118  A    between atoms: _270  and  _273
REMARK  119  A    between atoms: _276  and  _278
REMARK  120  A    between atoms: _278  and  _279
REMARK  121  A    between atoms: _278  and  _281
REMARK  122  A    between atoms: _281  and  _282
REMARK  123  A    between atoms: _282  and  _283
REMARK  124  A    between atoms: _288  and  _290
REMARK  125  A    between atoms: _290  and  _291
REMARK  126  A    between atoms: _290  and  _293
REMARK  127  A    between atoms: _293  and  _294
REMARK  128  A    between atoms: _297  and  _299
REMARK  129  A    between atoms: _299  and  _300
REMARK  130  A    between atoms: _299  and  _302
REMARK  131  A    between atoms: _302  and  _303
REMARK  132  A    between atoms: _306  and  _308
REMARK  133  A    between atoms: _308  and  _309
REMARK  134  A    between atoms: _308  and  _311
REMARK  135  A    between atoms: _311  and  _312
REMARK  136  A    between atoms: _312  and  _313
REMARK  137  A    between atoms: _315  and  _317
REMARK  138  A    between atoms: _317  and  _318
REMARK  139  A    between atoms: _317  and  _320
REMARK  140  A    between atoms: _320  and  _321
REMARK  141  A    between atoms: _321  and  _322
REMARK  142  A    between atoms: _325  and  _327
REMARK  143  A    between atoms: _327  and  _328
REMARK  144  A    between atoms: _327  and  _330
REMARK  145  A    between atoms: _330  and  _331
REMARK  146  A    between atoms: _334  and  _336
REMARK  147  A    between atoms: _336  and  _337
REMARK  148  A    between atoms: _336  and  _339
REMARK  149  A    between atoms: _339  and  _340
REMARK  150  A    between atoms: _343  and  _345
REMARK  151  A    between atoms: _345  and  _346
REMARK  152  A    between atoms: _345  and  _348
REMARK  153  A    between atoms: _348  and  _349
REMARK  154  A    between atoms: _352  and  _354
REMARK  155  A    between atoms: _354  and  _355
REMARK  156  A    between atoms: _354  and  _357
REMARK  157  A    between atoms: _357  and  _358
REMARK  158  A    between atoms: _363  and  _364
REMARK  159  A    between atoms: _366  and  _368
REMARK  160  A    between atoms: _368  and  _369
REMARK  161  A    between atoms: _368  and  _371
REMARK  162  A    between atoms: _371  and  _372
REMARK  163  A    between atoms: _372  and  _373
REMARK  164  A    between atoms: _373  and  _374
REMARK  165  A    between atoms: _374  and  _375
REMARK  166  A    between atoms: _379  and  _381
REMARK  167  A    between atoms: _381  and  _382
REMARK  168  A    between atoms: _381  and  _384
REMARK  169  A    between atoms: _384  and  _385
REMARK  170  A    between atoms: _388  and  _390
REMARK  171  A    between atoms: _390  and  _391
REMARK  172  A    between atoms: _390  and  _393
REMARK  173  A    between atoms: _393  and  _394
REMARK  174  A    between atoms: _397  and  _399
REMARK  175  A    between atoms: _399  and  _400
REMARK  176  A    between atoms: _399  and  _402
REMARK  177  A    between atoms: _402  and  _403
REMARK  178  A    between atoms: _403  and  _404
REMARK  179  A    between atoms: _404  and  _405
REMARK  180  A    between atoms: _405  and  _406
REMARK  181  A    between atoms: _411  and  _412
REMARK  182  A    between atoms: _417  and  _419
REMARK  183  A    between atoms: _419  and  _420
REMARK  184  A    between atoms: _419  and  _422
REMARK  185  A    between atoms: _422  and  _423
REMARK  186  A    between atoms: _425  and  _427
REMARK  187  A    between atoms: _427  and  _428
REMARK  188  A    between atoms: _427  and  _430
REMARK  189  A    between atoms: _430  and  _431
REMARK  190  A    between atoms: _436  and  _438
REMARK  191  A    between atoms: _438  and  _439
REMARK  192  A    between atoms: _438  and  _441
REMARK  193  A    between atoms: _441  and  _442
REMARK  194  A    between atoms: _445  and  _447
REMARK  195  A    between atoms: _447  and  _448
REMARK  196  A    between atoms: _447  and  _450
REMARK  197  A    between atoms: _450  and  _451
REMARK  198  A    between atoms: _454  and  _456
REMARK  199  A    between atoms: _456  and  _457
REMARK  200  A    between atoms: _456  and  _459
REMARK  201  A    between atoms: _459  and  _460
REMARK  202  A    between atoms: _463  and  _465
REMARK  203  A    between atoms: _465  and  _466
REMARK  204  A    between atoms: _465  and  _468
REMARK  205  A    between atoms: _468  and  _469
REMARK  206  A    between atoms: _469  and  _470
REMARK  207  A    between atoms: _470  and  _471
REMARK  208  A    between atoms: _471  and  _472
REMARK  209  A    between atoms: _476  and  _478
REMARK  210  A    between atoms: _478  and  _479
REMARK  211  A    between atoms: _478  and  _481
REMARK  212  A    between atoms: _481  and  _482
REMARK  213  A    between atoms: _485  and  _487
REMARK  214  A    between atoms: _487  and  _488
REMARK  215  A    between atoms: _487  and  _490
REMARK  216  A    between atoms: _492  and  _494
REMARK  217  A    between atoms: _494  and  _495
REMARK  218  A    between atoms: _494  and  _497
REMARK  219  A    between atoms: _497  and  _498
REMARK  220  A    between atoms: _501  and  _503
REMARK  221  A    between atoms: _503  and  _504
REMARK  222  A    between atoms: _503  and  _506
REMARK  223  A    between atoms: _506  and  _507
REMARK  224  A    between atoms: _513  and  _515
REMARK  225  A    between atoms: _515  and  _516
REMARK  226  A    between atoms: _518  and  _520
REMARK  227  A    between atoms: _520  and  _521
REMARK  228  A    between atoms: _520  and  _523
REMARK  229  A    between atoms: _523  and  _524
REMARK  230  A    between atoms: _527  and  _529
REMARK  231  A    between atoms: _529  and  _530
REMARK  232  A    between atoms: _529  and  _532
REMARK  233  A    between atoms: _532  and  _533
REMARK                            x       y       z     vdW  Elec       q    Type
REMARK                         _______ _______ _______ _____ _____    ______ ____
ROOT
ATOM      1  O   HOH     1       6.301  -7.420  40.053  0.00  0.00    +0.000 OA
ENDROOT
TORSDOF 0
REMARK  Name = ../refined-set-2016/3i60/3i60_pocket.pdb
REMARK  233 active torsions:
REMARK  status: ('A' for Active; 'I' for Inactive)
REMARK    1  A    between atoms: _1  and  _3
REMARK    2  A    between atoms: _3  and  _4
REMARK    3  A    between atoms: _3  and  _6
REMARK    4  A    between atoms: _6  and  _7
REMARK    5  A    between atoms: _9  and  _11
REMARK    6  A    between atoms: _11  and  _12
REMARK    7  A    between atoms: _11  and  _14
REMARK    8  A    between atoms: _14  and  _15
REMARK    9  A    between atoms: _20  and  _21
REMARK   10  A    between atoms: _23  and  _25
REMARK   11  A    between atoms: _25  and  _26
REMARK   12  A    between atoms: _25  and  _28
REMARK   13  A    between atoms: _28  and  _29
REMARK   14  A    between atoms: _32  and  _34
REMARK   15  A    between atoms: _34  and  _35
REMARK   16  A    between atoms: _37  and  _39
REMARK   17  A    between atoms: _39  and  _40
REMARK   18  A    between atoms: _39  and  _42
REMARK   19  A    between atoms: _42  and  _43
REMARK   20  A    between atoms: _43  and  _44
REMARK   21  A    between atoms: _47  and  _49
REMARK   22  A    between atoms: _49  and  _50
REMARK   23  A    between atoms: _52  and  _54
REMARK   24  A    between atoms: _54  and  _55
REMARK   25  A    between atoms: _58  and  _60
REMARK   26  A    between atoms: _60  and  _61
REMARK   27  A    between atoms: _60  and  _63
REMARK   28  A    between atoms: _63  and  _64
REMARK   29  A    between atoms: _69  and  _70
REMARK   30  A    between atoms: _72  and  _74
REMARK   31  A    between atoms: _74  and  _75
REMARK   32  A    between atoms: _77  and  _79
REMARK   33  A    between atoms: _79  and  _80
REMARK   34  A    between atoms: _79  and  _82
REMARK   35  A    between atoms: _82  and  _83
REMARK   36  A    between atoms: _83  and  _84
REMARK   37  A    between atoms: _86  and  _88
REMARK   38  A    between atoms: _88  and  _89
REMARK   39  A    between atoms: _88  and  _91
REMARK   40  A    between atoms: _94  and  _96
REMARK   41  A    between atoms: _96  and  _97
REMARK   42  A    between atoms: _96  and  _99
REMARK   43  A    between atoms: _101  and  _103
REMARK   44  A    between atoms: _103  and  _104
REMARK   45  A    between atoms: _103  and  _106
REMARK   46  A    between atoms: _106  and  _107
REMARK   47  A    between atoms: _109  and  _111
REMARK   48  A    between atoms: _111  and  _112
REMARK   49  A    between atoms: _111  and  _114
REMARK   50  A    between atoms: _114  and  _115
REMARK   51  A    between atoms: _115  and  _116
REMARK   52  A    between atoms: _116  and  _117
REMARK   53  A    between atoms: _126  and  _128
REMARK   54  A    between atoms: _128  and  _129
REMARK   55  A    between atoms: _128  and  _131
REMARK   56  A    between atoms: _134  and  _136
REMARK   57  A    between atoms: _136  and  _137
REMARK   58  A    between atoms: _140  and  _142
REMARK   59  A    between atoms: _142  and  _143
REMARK   60  A    between atoms: _142  and  _145
REMARK   61  A    between atoms: _145  and  _146
REMARK   62  A    between atoms: _149  and  _151
REMARK   63  A    between atoms: _151  and  _152
REMARK   64  A    between atoms: _151  and  _154
REMARK   65  A    between atoms: _154  and  _155
REMARK   66  A    between atoms: _155  and  _156
REMARK   67  A    between atoms: _156  and  _157
REMARK   68  A    between atoms: _157  and  _158
REMARK   69  A    between atoms: _162  and  _164
REMARK   70  A    between atoms: _164  and  _165
REMARK   71  A    between atoms: _164  and  _167
REMARK   72  A    between atoms: _167  and  _168
REMARK   73  A    between atoms: _168  and  _169
REMARK   74  A    between atoms: _169  and  _170
REMARK   75  A    between atoms: _170  and  _171
REMARK   76  A    between atoms: _175  and  _177
REMARK   77  A    between atoms: _177  and  _178
REMARK   78  A    between atoms: _177  and  _180
REMARK   79  A    between atoms: _180  and  _181
REMARK   80  A    between atoms: _184  and  _186
REMARK   81  A    between atoms: _186  and  _187
REMARK   82  A    between atoms: _186  and  _189
REMARK   83  A    between atoms: _189  and  _190
REMARK   84  A    between atoms: _192  and  _194
REMARK   85  A    between atoms: _194  and  _195
REMARK   86  A    between atoms: _194  and  _197
REMARK   87  A    between atoms: _197  and  _198
REMARK   88  A    between atoms: _198  and  _199
REMARK   89  A    between atoms: _199  and  _200
REMARK   90  A    between atoms: _209  and  _211
REMARK   91  A    between atoms: _211  and  _212
REMARK   92  A    between atoms: _211  and  _214
REMARK   93  A    between atoms: _214  and  _215
REMARK   94  A    between atoms: _218  and  _220
REMARK   95  A    between atoms: _220  and  _221
REMARK   96  A    between atoms: _220  and  _223
REMARK   97  A    between atoms: _223  and  _224
REMARK   98  A    between atoms: _224  and  _225
REMARK   99  A    between atoms: _228  and  _230
REMARK  100  A    between atoms: _230  and  _231
REMARK  101  A    between atoms: _230  and  _233
REMARK  102  A    between atoms: _233  and  _234
REMARK  103  A    between atoms: _237  and  _239
REMARK  104  A    between atoms: _239  and  _240
REMARK  105  A    between atoms: _239  and  _242
REMARK  106  A    between atoms: _242  and  _243
REMARK  107  A    between atoms: _246  and  _248
REMARK  108  A    between atoms: _248  and  _249
REMARK  109  A    between atoms: _251  and  _253
REMARK  110  A    between atoms: _253  and  _254
REMARK  111  A    between atoms: _253  and  _256
REMARK  112  A    between atoms: _259  and  _261
REMARK  113  A    between atoms: _261  and  _262
REMARK  114  A    between atoms: _261  and  _264
REMARK  115  A    between atoms: _264  and  _265
REMARK  116  A    between atoms: _268  and  _270
REMARK  117  A    between atoms: _270  and  _271
REMARK  118  A    between atoms: _270  and  _273
REMARK  119  A    between atoms: _276  and  _278
REMARK  120  A    between atoms: _278  and  _279
REMARK  121  A    between atoms: _278  and  _281
REMARK  122  A    between atoms: _281  and  _282
REMARK  123  A    between atoms: _282  and  _283
REMARK  124  A    between atoms: _288  and  _290
REMARK  125  A    between atoms: _290  and  _291
REMARK  126  A    between atoms: _290  and  _293
REMARK  127  A    between atoms: _293  and  _294
REMARK  128  A    between atoms: _297  and  _299
REMARK  129  A    between atoms: _299  and  _300
REMARK  130  A    between atoms: _299  and  _302
REMARK  131  A    between atoms: _302  and  _303
REMARK  132  A    between atoms: _306  and  _308
REMARK  133  A    between atoms: _308  and  _309
REMARK  134  A    between atoms: _308  and  _311
REMARK  135  A    between atoms: _311  and  _312
REMARK  136  A    between atoms: _312  and  _313
REMARK  137  A    between atoms: _315  and  _317
REMARK  138  A    between atoms: _317  and  _318
REMARK  139  A    between atoms: _317  and  _320
REMARK  140  A    between atoms: _320  and  _321
REMARK  141  A    between atoms: _321  and  _322
REMARK  142  A    between atoms: _325  and  _327
REMARK  143  A    between atoms: _327  and  _328
REMARK  144  A    between atoms: _327  and  _330
REMARK  145  A    between atoms: _330  and  _331
REMARK  146  A    between atoms: _334  and  _336
REMARK  147  A    between atoms: _336  and  _337
REMARK  148  A    between atoms: _336  and  _339
REMARK  149  A    between atoms: _339  and  _340
REMARK  150  A    between atoms: _343  and  _345
REMARK  151  A    between atoms: _345  and  _346
REMARK  152  A    between atoms: _345  and  _348
REMARK  153  A    between atoms: _348  and  _349
REMARK  154  A    between atoms: _352  and  _354
REMARK  155  A    between atoms: _354  and  _355
REMARK  156  A    between atoms: _354  and  _357
REMARK  157  A    between atoms: _357  and  _358
REMARK  158  A    between atoms: _363  and  _364
REMARK  159  A    between atoms: _366  and  _368
REMARK  160  A    between atoms: _368  and  _369
REMARK  161  A    between atoms: _368  and  _371
REMARK  162  A    between atoms: _371  and  _372
REMARK  163  A    between atoms: _372  and  _373
REMARK  164  A    between atoms: _373  and  _374
REMARK  165  A    between atoms: _374  and  _375
REMARK  166  A    between atoms: _379  and  _381
REMARK  167  A    between atoms: _381  and  _382
REMARK  168  A    between atoms: _381  and  _384
REMARK  169  A    between atoms: _384  and  _385
REMARK  170  A    between atoms: _388  and  _390
REMARK  171  A    between atoms: _390  and  _391
REMARK  172  A    between atoms: _390  and  _393
REMARK  173  A    between atoms: _393  and  _394
REMARK  174  A    between atoms: _397  and  _399
REMARK  175  A    between atoms: _399  and  _400
REMARK  176  A    between atoms: _399  and  _402
REMARK  177  A    between atoms: _402  and  _403
REMARK  178  A    between atoms: _403  and  _404
REMARK  179  A    between atoms: _404  and  _405
REMARK  180  A    between atoms: _405  and  _406
REMARK  181  A    between atoms: _411  and  _412
REMARK  182  A    between atoms: _417  and  _419
REMARK  183  A    between atoms: _419  and  _420
REMARK  184  A    between atoms: _419  and  _422
REMARK  185  A    between atoms: _422  and  _423
REMARK  186  A    between atoms: _425  and  _427
REMARK  187  A    between atoms: _427  and  _428
REMARK  188  A    between atoms: _427  and  _430
REMARK  189  A    between atoms: _430  and  _431
REMARK  190  A    between atoms: _436  and  _438
REMARK  191  A    between atoms: _438  and  _439
REMARK  192  A    between atoms: _438  and  _441
REMARK  193  A    between atoms: _441  and  _442
REMARK  194  A    between atoms: _445  and  _447
REMARK  195  A    between atoms: _447  and  _448
REMARK  196  A    between atoms: _447  and  _450
REMARK  197  A    between atoms: _450  and  _451
REMARK  198  A    between atoms: _454  and  _456
REMARK  199  A    between atoms: _456  and  _457
REMARK  200  A    between atoms: _456  and  _459
REMARK  201  A    between atoms: _459  and  _460
REMARK  202  A    between atoms: _463  and  _465
REMARK  203  A    between atoms: _465  and  _466
REMARK  204  A    between atoms: _465  and  _468
REMARK  205  A    between atoms: _468  and  _469
REMARK  206  A    between atoms: _469  and  _470
REMARK  207  A    between atoms: _470  and  _471
REMARK  208  A    between atoms: _471  and  _472
REMARK  209  A    between atoms: _476  and  _478
REMARK  210  A    between atoms: _478  and  _479
REMARK  211  A    between atoms: _478  and  _481
REMARK  212  A    between atoms: _481  and  _482
REMARK  213  A    between atoms: _485  and  _487
REMARK  214  A    between atoms: _487  and  _488
REMARK  215  A    between atoms: _487  and  _490
REMARK  216  A    between atoms: _492  and  _494
REMARK  217  A    between atoms: _494  and  _495
REMARK  218  A    between atoms: _494  and  _497
REMARK  219  A    between atoms: _497  and  _498
REMARK  220  A    between atoms: _501  and  _503
REMARK  221  A    between atoms: _503  and  _504
REMARK  222  A    between atoms: _503  and  _506
REMARK  223  A    between atoms: _506  and  _507
REMARK  224  A    between atoms: _513  and  _515
REMARK  225  A    between atoms: _515  and  _516
REMARK  226  A    between atoms: _518  and  _520
REMARK  227  A    between atoms: _520  and  _521
REMARK  228  A    between atoms: _520  and  _523
REMARK  229  A    between atoms: _523  and  _524
REMARK  230  A    between atoms: _527  and  _529
REMARK  231  A    between atoms: _529  and  _530
REMARK  232  A    between atoms: _529  and  _532
REMARK  233  A    between atoms: _532  and  _533
REMARK                            x       y       z     vdW  Elec       q    Type
REMARK                         _______ _______ _______ _____ _____    ______ ____
ROOT
ATOM      1  O   HOH     1       7.280  -3.424  40.533  0.00  0.00    +0.000 OA
ENDROOT
TORSDOF 0
REMARK  Name = ../refined-set-2016/3i60/3i60_pocket.pdb
REMARK  233 active torsions:
REMARK  status: ('A' for Active; 'I' for Inactive)
REMARK    1  A    between atoms: _1  and  _3
REMARK    2  A    between atoms: _3  and  _4
REMARK    3  A    between atoms: _3  and  _6
REMARK    4  A    between atoms: _6  and  _7
REMARK    5  A    between atoms: _9  and  _11
REMARK    6  A    between atoms: _11  and  _12
REMARK    7  A    between atoms: _11  and  _14
REMARK    8  A    between atoms: _14  and  _15
REMARK    9  A    between atoms: _20  and  _21
REMARK   10  A    between atoms: _23  and  _25
REMARK   11  A    between atoms: _25  and  _26
REMARK   12  A    between atoms: _25  and  _28
REMARK   13  A    between atoms: _28  and  _29
REMARK   14  A    between atoms: _32  and  _34
REMARK   15  A    between atoms: _34  and  _35
REMARK   16  A    between atoms: _37  and  _39
REMARK   17  A    between atoms: _39  and  _40
REMARK   18  A    between atoms: _39  and  _42
REMARK   19  A    between atoms: _42  and  _43
REMARK   20  A    between atoms: _43  and  _44
REMARK   21  A    between atoms: _47  and  _49
REMARK   22  A    between atoms: _49  and  _50
REMARK   23  A    between atoms: _52  and  _54
REMARK   24  A    between atoms: _54  and  _55
REMARK   25  A    between atoms: _58  and  _60
REMARK   26  A    between atoms: _60  and  _61
REMARK   27  A    between atoms: _60  and  _63
REMARK   28  A    between atoms: _63  and  _64
REMARK   29  A    between atoms: _69  and  _70
REMARK   30  A    between atoms: _72  and  _74
REMARK   31  A    between atoms: _74  and  _75
REMARK   32  A    between atoms: _77  and  _79
REMARK   33  A    between atoms: _79  and  _80
REMARK   34  A    between atoms: _79  and  _82
REMARK   35  A    between atoms: _82  and  _83
REMARK   36  A    between atoms: _83  and  _84
REMARK   37  A    between atoms: _86  and  _88
REMARK   38  A    between atoms: _88  and  _89
REMARK   39  A    between atoms: _88  and  _91
REMARK   40  A    between atoms: _94  and  _96
REMARK   41  A    between atoms: _96  and  _97
REMARK   42  A    between atoms: _96  and  _99
REMARK   43  A    between atoms: _101  and  _103
REMARK   44  A    between atoms: _103  and  _104
REMARK   45  A    between atoms: _103  and  _106
REMARK   46  A    between atoms: _106  and  _107
REMARK   47  A    between atoms: _109  and  _111
REMARK   48  A    between atoms: _111  and  _112
REMARK   49  A    between atoms: _111  and  _114
REMARK   50  A    between atoms: _114  and  _115
REMARK   51  A    between atoms: _115  and  _116
REMARK   52  A    between atoms: _116  and  _117
REMARK   53  A    between atoms: _126  and  _128
REMARK   54  A    between atoms: _128  and  _129
REMARK   55  A    between atoms: _128  and  _131
REMARK   56  A    between atoms: _134  and  _136
REMARK   57  A    between atoms: _136  and  _137
REMARK   58  A    between atoms: _140  and  _142
REMARK   59  A    between atoms: _142  and  _143
REMARK   60  A    between atoms: _142  and  _145
REMARK   61  A    between atoms: _145  and  _146
REMARK   62  A    between atoms: _149  and  _151
REMARK   63  A    between atoms: _151  and  _152
REMARK   64  A    between atoms: _151  and  _154
REMARK   65  A    between atoms: _154  and  _155
REMARK   66  A    between atoms: _155  and  _156
REMARK   67  A    between atoms: _156  and  _157
REMARK   68  A    between atoms: _157  and  _158
REMARK   69  A    between atoms: _162  and  _164
REMARK   70  A    between atoms: _164  and  _165
REMARK   71  A    between atoms: _164  and  _167
REMARK   72  A    between atoms: _167  and  _168
REMARK   73  A    between atoms: _168  and  _169
REMARK   74  A    between atoms: _169  and  _170
REMARK   75  A    between atoms: _170  and  _171
REMARK   76  A    between atoms: _175  and  _177
REMARK   77  A    between atoms: _177  and  _178
REMARK   78  A    between atoms: _177  and  _180
REMARK   79  A    between atoms: _180  and  _181
REMARK   80  A    between atoms: _184  and  _186
REMARK   81  A    between atoms: _186  and  _187
REMARK   82  A    between atoms: _186  and  _189
REMARK   83  A    between atoms: _189  and  _190
REMARK   84  A    between atoms: _192  and  _194
REMARK   85  A    between atoms: _194  and  _195
REMARK   86  A    between atoms: _194  and  _197
REMARK   87  A    between atoms: _197  and  _198
REMARK   88  A    between atoms: _198  and  _199
REMARK   89  A    between atoms: _199  and  _200
REMARK   90  A    between atoms: _209  and  _211
REMARK   91  A    between atoms: _211  and  _212
REMARK   92  A    between atoms: _211  and  _214
REMARK   93  A    between atoms: _214  and  _215
REMARK   94  A    between atoms: _218  and  _220
REMARK   95  A    between atoms: _220  and  _221
REMARK   96  A    between atoms: _220  and  _223
REMARK   97  A    between atoms: _223  and  _224
REMARK   98  A    between atoms: _224  and  _225
REMARK   99  A    between atoms: _228  and  _230
REMARK  100  A    between atoms: _230  and  _231
REMARK  101  A    between atoms: _230  and  _233
REMARK  102  A    between atoms: _233  and  _234
REMARK  103  A    between atoms: _237  and  _239
REMARK  104  A    between atoms: _239  and  _240
REMARK  105  A    between atoms: _239  and  _242
REMARK  106  A    between atoms: _242  and  _243
REMARK  107  A    between atoms: _246  and  _248
REMARK  108  A    between atoms: _248  and  _249
REMARK  109  A    between atoms: _251  and  _253
REMARK  110  A    between atoms: _253  and  _254
REMARK  111  A    between atoms: _253  and  _256
REMARK  112  A    between atoms: _259  and  _261
REMARK  113  A    between atoms: _261  and  _262
REMARK  114  A    between atoms: _261  and  _264
REMARK  115  A    between atoms: _264  and  _265
REMARK  116  A    between atoms: _268  and  _270
REMARK  117  A    between atoms: _270  and  _271
REMARK  118  A    between atoms: _270  and  _273
REMARK  119  A    between atoms: _276  and  _278
REMARK  120  A    between atoms: _278  and  _279
REMARK  121  A    between atoms: _278  and  _281
REMARK  122  A    between atoms: _281  and  _282
REMARK  123  A    between atoms: _282  and  _283
REMARK  124  A    between atoms: _288  and  _290
REMARK  125  A    between atoms: _290  and  _291
REMARK  126  A    between atoms: _290  and  _293
REMARK  127  A    between atoms: _293  and  _294
REMARK  128  A    between atoms: _297  and  _299
REMARK  129  A    between atoms: _299  and  _300
REMARK  130  A    between atoms: _299  and  _302
REMARK  131  A    between atoms: _302  and  _303
REMARK  132  A    between atoms: _306  and  _308
REMARK  133  A    between atoms: _308  and  _309
REMARK  134  A    between atoms: _308  and  _311
REMARK  135  A    between atoms: _311  and  _312
REMARK  136  A    between atoms: _312  and  _313
REMARK  137  A    between atoms: _315  and  _317
REMARK  138  A    between atoms: _317  and  _318
REMARK  139  A    between atoms: _317  and  _320
REMARK  140  A    between atoms: _320  and  _321
REMARK  141  A    between atoms: _321  and  _322
REMARK  142  A    between atoms: _325  and  _327
REMARK  143  A    between atoms: _327  and  _328
REMARK  144  A    between atoms: _327  and  _330
REMARK  145  A    between atoms: _330  and  _331
REMARK  146  A    between atoms: _334  and  _336
REMARK  147  A    between atoms: _336  and  _337
REMARK  148  A    between atoms: _336  and  _339
REMARK  149  A    between atoms: _339  and  _340
REMARK  150  A    between atoms: _343  and  _345
REMARK  151  A    between atoms: _345  and  _346
REMARK  152  A    between atoms: _345  and  _348
REMARK  153  A    between atoms: _348  and  _349
REMARK  154  A    between atoms: _352  and  _354
REMARK  155  A    between atoms: _354  and  _355
REMARK  156  A    between atoms: _354  and  _357
REMARK  157  A    between atoms: _357  and  _358
REMARK  158  A    between atoms: _363  and  _364
REMARK  159  A    between atoms: _366  and  _368
REMARK  160  A    between atoms: _368  and  _369
REMARK  161  A    between atoms: _368  and  _371
REMARK  162  A    between atoms: _371  and  _372
REMARK  163  A    between atoms: _372  and  _373
REMARK  164  A    between atoms: _373  and  _374
REMARK  165  A    between atoms: _374  and  _375
REMARK  166  A    between atoms: _379  and  _381
REMARK  167  A    between atoms: _381  and  _382
REMARK  168  A    between atoms: _381  and  _384
REMARK  169  A    between atoms: _384  and  _385
REMARK  170  A    between atoms: _388  and  _390
REMARK  171  A    between atoms: _390  and  _391
REMARK  172  A    between atoms: _390  and  _393
REMARK  173  A    between atoms: _393  and  _394
REMARK  174  A    between atoms: _397  and  _399
REMARK  175  A    between atoms: _399  and  _400
REMARK  176  A    between atoms: _399  and  _402
REMARK  177  A    between atoms: _402  and  _403
REMARK  178  A    between atoms: _403  and  _404
REMARK  179  A    between atoms: _404  and  _405
REMARK  180  A    between atoms: _405  and  _406
REMARK  181  A    between atoms: _411  and  _412
REMARK  182  A    between atoms: _417  and  _419
REMARK  183  A    between atoms: _419  and  _420
REMARK  184  A    between atoms: _419  and  _422
REMARK  185  A    between atoms: _422  and  _423
REMARK  186  A    between atoms: _425  and  _427
REMARK  187  A    between atoms: _427  and  _428
REMARK  188  A    between atoms: _427  and  _430
REMARK  189  A    between atoms: _430  and  _431
REMARK  190  A    between atoms: _436  and  _438
REMARK  191  A    between atoms: _438  and  _439
REMARK  192  A    between atoms: _438  and  _441
REMARK  193  A    between atoms: _441  and  _442
REMARK  194  A    between atoms: _445  and  _447
REMARK  195  A    between atoms: _447  and  _448
REMARK  196  A    between atoms: _447  and  _450
REMARK  197  A    between atoms: _450  and  _451
REMARK  198  A    between atoms: _454  and  _456
REMARK  199  A    between atoms: _456  and  _457
REMARK  200  A    between atoms: _456  and  _459
REMARK  201  A    between atoms: _459  and  _460
REMARK  202  A    between atoms: _463  and  _465
REMARK  203  A    between atoms: _465  and  _466
REMARK  204  A    between atoms: _465  and  _468
REMARK  205  A    between atoms: _468  and  _469
REMARK  206  A    between atoms: _469  and  _470
REMARK  207  A    between atoms: _470  and  _471
REMARK  208  A    between atoms: _471  and  _472
REMARK  209  A    between atoms: _476  and  _478
REMARK  210  A    between atoms: _478  and  _479
REMARK  211  A    between atoms: _478  and  _481
REMARK  212  A    between atoms: _481  and  _482
REMARK  213  A    between atoms: _485  and  _487
REMARK  214  A    between atoms: _487  and  _488
REMARK  215  A    between atoms: _487  and  _490
REMARK  216  A    between atoms: _492  and  _494
REMARK  217  A    between atoms: _494  and  _495
REMARK  218  A    between atoms: _494  and  _497
REMARK  219  A    between atoms: _497  and  _498
REMARK  220  A    between atoms: _501  and  _503
REMARK  221  A    between atoms: _503  and  _504
REMARK  222  A    between atoms: _503  and  _506
REMARK  223  A    between atoms: _506  and  _507
REMARK  224  A    between atoms: _513  and  _515
REMARK  225  A    between atoms: _515  and  _516
REMARK  226  A    between atoms: _518  and  _520
REMARK  227  A    between atoms: _520  and  _521
REMARK  228  A    between atoms: _520  and  _523
REMARK  229  A    between atoms: _523  and  _524
REMARK  230  A    between atoms: _527  and  _529
REMARK  231  A    between atoms: _529  and  _530
REMARK  232  A    between atoms: _529  and  _532
REMARK  233  A    between atoms: _532  and  _533
REMARK                            x       y       z     vdW  Elec       q    Type
REMARK                         _______ _______ _______ _____ _____    ______ ____
ROOT
ATOM      1  O   HOH     1       7.472  -5.662  41.825  0.00  0.00    +0.000 OA
ENDROOT
TORSDOF 0
REMARK  Name = ../refined-set-2016/3i60/3i60_pocket.pdb
REMARK  233 active torsions:
REMARK  status: ('A' for Active; 'I' for Inactive)
REMARK    1  A    between atoms: _1  and  _3
REMARK    2  A    between atoms: _3  and  _4
REMARK    3  A    between atoms: _3  and  _6
REMARK    4  A    between atoms: _6  and  _7
REMARK    5  A    between atoms: _9  and  _11
REMARK    6  A    between atoms: _11  and  _12
REMARK    7  A    between atoms: _11  and  _14
REMARK    8  A    between atoms: _14  and  _15
REMARK    9  A    between atoms: _20  and  _21
REMARK   10  A    between atoms: _23  and  _25
REMARK   11  A    between atoms: _25  and  _26
REMARK   12  A    between atoms: _25  and  _28
REMARK   13  A    between atoms: _28  and  _29
REMARK   14  A    between atoms: _32  and  _34
REMARK   15  A    between atoms: _34  and  _35
REMARK   16  A    between atoms: _37  and  _39
REMARK   17  A    between atoms: _39  and  _40
REMARK   18  A    between atoms: _39  and  _42
REMARK   19  A    between atoms: _42  and  _43
REMARK   20  A    between atoms: _43  and  _44
REMARK   21  A    between atoms: _47  and  _49
REMARK   22  A    between atoms: _49  and  _50
REMARK   23  A    between atoms: _52  and  _54
REMARK   24  A    between atoms: _54  and  _55
REMARK   25  A    between atoms: _58  and  _60
REMARK   26  A    between atoms: _60  and  _61
REMARK   27  A    between atoms: _60  and  _63
REMARK   28  A    between atoms: _63  and  _64
REMARK   29  A    between atoms: _69  and  _70
REMARK   30  A    between atoms: _72  and  _74
REMARK   31  A    between atoms: _74  and  _75
REMARK   32  A    between atoms: _77  and  _79
REMARK   33  A    between atoms: _79  and  _80
REMARK   34  A    between atoms: _79  and  _82
REMARK   35  A    between atoms: _82  and  _83
REMARK   36  A    between atoms: _83  and  _84
REMARK   37  A    between atoms: _86  and  _88
REMARK   38  A    between atoms: _88  and  _89
REMARK   39  A    between atoms: _88  and  _91
REMARK   40  A    between atoms: _94  and  _96
REMARK   41  A    between atoms: _96  and  _97
REMARK   42  A    between atoms: _96  and  _99
REMARK   43  A    between atoms: _101  and  _103
REMARK   44  A    between atoms: _103  and  _104
REMARK   45  A    between atoms: _103  and  _106
REMARK   46  A    between atoms: _106  and  _107
REMARK   47  A    between atoms: _109  and  _111
REMARK   48  A    between atoms: _111  and  _112
REMARK   49  A    between atoms: _111  and  _114
REMARK   50  A    between atoms: _114  and  _115
REMARK   51  A    between atoms: _115  and  _116
REMARK   52  A    between atoms: _116  and  _117
REMARK   53  A    between atoms: _126  and  _128
REMARK   54  A    between atoms: _128  and  _129
REMARK   55  A    between atoms: _128  and  _131
REMARK   56  A    between atoms: _134  and  _136
REMARK   57  A    between atoms: _136  and  _137
REMARK   58  A    between atoms: _140  and  _142
REMARK   59  A    between atoms: _142  and  _143
REMARK   60  A    between atoms: _142  and  _145
REMARK   61  A    between atoms: _145  and  _146
REMARK   62  A    between atoms: _149  and  _151
REMARK   63  A    between atoms: _151  and  _152
REMARK   64  A    between atoms: _151  and  _154
REMARK   65  A    between atoms: _154  and  _155
REMARK   66  A    between atoms: _155  and  _156
REMARK   67  A    between atoms: _156  and  _157
REMARK   68  A    between atoms: _157  and  _158
REMARK   69  A    between atoms: _162  and  _164
REMARK   70  A    between atoms: _164  and  _165
REMARK   71  A    between atoms: _164  and  _167
REMARK   72  A    between atoms: _167  and  _168
REMARK   73  A    between atoms: _168  and  _169
REMARK   74  A    between atoms: _169  and  _170
REMARK   75  A    between atoms: _170  and  _171
REMARK   76  A    between atoms: _175  and  _177
REMARK   77  A    between atoms: _177  and  _178
REMARK   78  A    between atoms: _177  and  _180
REMARK   79  A    between atoms: _180  and  _181
REMARK   80  A    between atoms: _184  and  _186
REMARK   81  A    between atoms: _186  and  _187
REMARK   82  A    between atoms: _186  and  _189
REMARK   83  A    between atoms: _189  and  _190
REMARK   84  A    between atoms: _192  and  _194
REMARK   85  A    between atoms: _194  and  _195
REMARK   86  A    between atoms: _194  and  _197
REMARK   87  A    between atoms: _197  and  _198
REMARK   88  A    between atoms: _198  and  _199
REMARK   89  A    between atoms: _199  and  _200
REMARK   90  A    between atoms: _209  and  _211
REMARK   91  A    between atoms: _211  and  _212
REMARK   92  A    between atoms: _211  and  _214
REMARK   93  A    between atoms: _214  and  _215
REMARK   94  A    between atoms: _218  and  _220
REMARK   95  A    between atoms: _220  and  _221
REMARK   96  A    between atoms: _220  and  _223
REMARK   97  A    between atoms: _223  and  _224
REMARK   98  A    between atoms: _224  and  _225
REMARK   99  A    between atoms: _228  and  _230
REMARK  100  A    between atoms: _230  and  _231
REMARK  101  A    between atoms: _230  and  _233
REMARK  102  A    between atoms: _233  and  _234
REMARK  103  A    between atoms: _237  and  _239
REMARK  104  A    between atoms: _239  and  _240
REMARK  105  A    between atoms: _239  and  _242
REMARK  106  A    between atoms: _242  and  _243
REMARK  107  A    between atoms: _246  and  _248
REMARK  108  A    between atoms: _248  and  _249
REMARK  109  A    between atoms: _251  and  _253
REMARK  110  A    between atoms: _253  and  _254
REMARK  111  A    between atoms: _253  and  _256
REMARK  112  A    between atoms: _259  and  _261
REMARK  113  A    between atoms: _261  and  _262
REMARK  114  A    between atoms: _261  and  _264
REMARK  115  A    between atoms: _264  and  _265
REMARK  116  A    between atoms: _268  and  _270
REMARK  117  A    between atoms: _270  and  _271
REMARK  118  A    between atoms: _270  and  _273
REMARK  119  A    between atoms: _276  and  _278
REMARK  120  A    between atoms: _278  and  _279
REMARK  121  A    between atoms: _278  and  _281
REMARK  122  A    between atoms: _281  and  _282
REMARK  123  A    between atoms: _282  and  _283
REMARK  124  A    between atoms: _288  and  _290
REMARK  125  A    between atoms: _290  and  _291
REMARK  126  A    between atoms: _290  and  _293
REMARK  127  A    between atoms: _293  and  _294
REMARK  128  A    between atoms: _297  and  _299
REMARK  129  A    between atoms: _299  and  _300
REMARK  130  A    between atoms: _299  and  _302
REMARK  131  A    between atoms: _302  and  _303
REMARK  132  A    between atoms: _306  and  _308
REMARK  133  A    between atoms: _308  and  _309
REMARK  134  A    between atoms: _308  and  _311
REMARK  135  A    between atoms: _311  and  _312
REMARK  136  A    between atoms: _312  and  _313
REMARK  137  A    between atoms: _315  and  _317
REMARK  138  A    between atoms: _317  and  _318
REMARK  139  A    between atoms: _317  and  _320
REMARK  140  A    between atoms: _320  and  _321
REMARK  141  A    between atoms: _321  and  _322
REMARK  142  A    between atoms: _325  and  _327
REMARK  143  A    between atoms: _327  and  _328
REMARK  144  A    between atoms: _327  and  _330
REMARK  145  A    between atoms: _330  and  _331
REMARK  146  A    between atoms: _334  and  _336
REMARK  147  A    between atoms: _336  and  _337
REMARK  148  A    between atoms: _336  and  _339
REMARK  149  A    between atoms: _339  and  _340
REMARK  150  A    between atoms: _343  and  _345
REMARK  151  A    between atoms: _345  and  _346
REMARK  152  A    between atoms: _345  and  _348
REMARK  153  A    between atoms: _348  and  _349
REMARK  154  A    between atoms: _352  and  _354
REMARK  155  A    between atoms: _354  and  _355
REMARK  156  A    between atoms: _354  and  _357
REMARK  157  A    between atoms: _357  and  _358
REMARK  158  A    between atoms: _363  and  _364
REMARK  159  A    between atoms: _366  and  _368
REMARK  160  A    between atoms: _368  and  _369
REMARK  161  A    between atoms: _368  and  _371
REMARK  162  A    between atoms: _371  and  _372
REMARK  163  A    between atoms: _372  and  _373
REMARK  164  A    between atoms: _373  and  _374
REMARK  165  A    between atoms: _374  and  _375
REMARK  166  A    between atoms: _379  and  _381
REMARK  167  A    between atoms: _381  and  _382
REMARK  168  A    between atoms: _381  and  _384
REMARK  169  A    between atoms: _384  and  _385
REMARK  170  A    between atoms: _388  and  _390
REMARK  171  A    between atoms: _390  and  _391
REMARK  172  A    between atoms: _390  and  _393
REMARK  173  A    between atoms: _393  and  _394
REMARK  174  A    between atoms: _397  and  _399
REMARK  175  A    between atoms: _399  and  _400
REMARK  176  A    between atoms: _399  and  _402
REMARK  177  A    between atoms: _402  and  _403
REMARK  178  A    between atoms: _403  and  _404
REMARK  179  A    between atoms: _404  and  _405
REMARK  180  A    between atoms: _405  and  _406
REMARK  181  A    between atoms: _411  and  _412
REMARK  182  A    between atoms: _417  and  _419
REMARK  183  A    between atoms: _419  and  _420
REMARK  184  A    between atoms: _419  and  _422
REMARK  185  A    between atoms: _422  and  _423
REMARK  186  A    between atoms: _425  and  _427
REMARK  187  A    between atoms: _427  and  _428
REMARK  188  A    between atoms: _427  and  _430
REMARK  189  A    between atoms: _430  and  _431
REMARK  190  A    between atoms: _436  and  _438
REMARK  191  A    between atoms: _438  and  _439
REMARK  192  A    between atoms: _438  and  _441
REMARK  193  A    between atoms: _441  and  _442
REMARK  194  A    between atoms: _445  and  _447
REMARK  195  A    between atoms: _447  and  _448
REMARK  196  A    between atoms: _447  and  _450
REMARK  197  A    between atoms: _450  and  _451
REMARK  198  A    between atoms: _454  and  _456
REMARK  199  A    between atoms: _456  and  _457
REMARK  200  A    between atoms: _456  and  _459
REMARK  201  A    between atoms: _459  and  _460
REMARK  202  A    between atoms: _463  and  _465
REMARK  203  A    between atoms: _465  and  _466
REMARK  204  A    between atoms: _465  and  _468
REMARK  205  A    between atoms: _468  and  _469
REMARK  206  A    between atoms: _469  and  _470
REMARK  207  A    between atoms: _470  and  _471
REMARK  208  A    between atoms: _471  and  _472
REMARK  209  A    between atoms: _476  and  _478
REMARK  210  A    between atoms: _478  and  _479
REMARK  211  A    between atoms: _478  and  _481
REMARK  212  A    between atoms: _481  and  _482
REMARK  213  A    between atoms: _485  and  _487
REMARK  214  A    between atoms: _487  and  _488
REMARK  215  A    between atoms: _487  and  _490
REMARK  216  A    between atoms: _492  and  _494
REMARK  217  A    between atoms: _494  and  _495
REMARK  218  A    between atoms: _494  and  _497
REMARK  219  A    between atoms: _497  and  _498
REMARK  220  A    between atoms: _501  and  _503
REMARK  221  A    between atoms: _503  and  _504
REMARK  222  A    between atoms: _503  and  _506
REMARK  223  A    between atoms: _506  and  _507
REMARK  224  A    between atoms: _513  and  _515
REMARK  225  A    between atoms: _515  and  _516
REMARK  226  A    between atoms: _518  and  _520
REMARK  227  A    between atoms: _520  and  _521
REMARK  228  A    between atoms: _520  and  _523
REMARK  229  A    between atoms: _523  and  _524
REMARK  230  A    between atoms: _527  and  _529
REMARK  231  A    between atoms: _529  and  _530
REMARK  232  A    between atoms: _529  and  _532
REMARK  233  A    between atoms: _532  and  _533
REMARK                            x       y       z     vdW  Elec       q    Type
REMARK                         _______ _______ _______ _____ _____    ______ ____
ROOT
ATOM      1  O   HOH     1       9.821  -6.087  43.015  0.00  0.00    +0.000 OA
ENDROOT
TORSDOF 0
REMARK  Name = ../refined-set-2016/3i60/3i60_pocket.pdb
REMARK  233 active torsions:
REMARK  status: ('A' for Active; 'I' for Inactive)
REMARK    1  A    between atoms: _1  and  _3
REMARK    2  A    between atoms: _3  and  _4
REMARK    3  A    between atoms: _3  and  _6
REMARK    4  A    between atoms: _6  and  _7
REMARK    5  A    between atoms: _9  and  _11
REMARK    6  A    between atoms: _11  and  _12
REMARK    7  A    between atoms: _11  and  _14
REMARK    8  A    between atoms: _14  and  _15
REMARK    9  A    between atoms: _20  and  _21
REMARK   10  A    between atoms: _23  and  _25
REMARK   11  A    between atoms: _25  and  _26
REMARK   12  A    between atoms: _25  and  _28
REMARK   13  A    between atoms: _28  and  _29
REMARK   14  A    between atoms: _32  and  _34
REMARK   15  A    between atoms: _34  and  _35
REMARK   16  A    between atoms: _37  and  _39
REMARK   17  A    between atoms: _39  and  _40
REMARK   18  A    between atoms: _39  and  _42
REMARK   19  A    between atoms: _42  and  _43
REMARK   20  A    between atoms: _43  and  _44
REMARK   21  A    between atoms: _47  and  _49
REMARK   22  A    between atoms: _49  and  _50
REMARK   23  A    between atoms: _52  and  _54
REMARK   24  A    between atoms: _54  and  _55
REMARK   25  A    between atoms: _58  and  _60
REMARK   26  A    between atoms: _60  and  _61
REMARK   27  A    between atoms: _60  and  _63
REMARK   28  A    between atoms: _63  and  _64
REMARK   29  A    between atoms: _69  and  _70
REMARK   30  A    between atoms: _72  and  _74
REMARK   31  A    between atoms: _74  and  _75
REMARK   32  A    between atoms: _77  and  _79
REMARK   33  A    between atoms: _79  and  _80
REMARK   34  A    between atoms: _79  and  _82
REMARK   35  A    between atoms: _82  and  _83
REMARK   36  A    between atoms: _83  and  _84
REMARK   37  A    between atoms: _86  and  _88
REMARK   38  A    between atoms: _88  and  _89
REMARK   39  A    between atoms: _88  and  _91
REMARK   40  A    between atoms: _94  and  _96
REMARK   41  A    between atoms: _96  and  _97
REMARK   42  A    between atoms: _96  and  _99
REMARK   43  A    between atoms: _101  and  _103
REMARK   44  A    between atoms: _103  and  _104
REMARK   45  A    between atoms: _103  and  _106
REMARK   46  A    between atoms: _106  and  _107
REMARK   47  A    between atoms: _109  and  _111
REMARK   48  A    between atoms: _111  and  _112
REMARK   49  A    between atoms: _111  and  _114
REMARK   50  A    between atoms: _114  and  _115
REMARK   51  A    between atoms: _115  and  _116
REMARK   52  A    between atoms: _116  and  _117
REMARK   53  A    between atoms: _126  and  _128
REMARK   54  A    between atoms: _128  and  _129
REMARK   55  A    between atoms: _128  and  _131
REMARK   56  A    between atoms: _134  and  _136
REMARK   57  A    between atoms: _136  and  _137
REMARK   58  A    between atoms: _140  and  _142
REMARK   59  A    between atoms: _142  and  _143
REMARK   60  A    between atoms: _142  and  _145
REMARK   61  A    between atoms: _145  and  _146
REMARK   62  A    between atoms: _149  and  _151
REMARK   63  A    between atoms: _151  and  _152
REMARK   64  A    between atoms: _151  and  _154
REMARK   65  A    between atoms: _154  and  _155
REMARK   66  A    between atoms: _155  and  _156
REMARK   67  A    between atoms: _156  and  _157
REMARK   68  A    between atoms: _157  and  _158
REMARK   69  A    between atoms: _162  and  _164
REMARK   70  A    between atoms: _164  and  _165
REMARK   71  A    between atoms: _164  and  _167
REMARK   72  A    between atoms: _167  and  _168
REMARK   73  A    between atoms: _168  and  _169
REMARK   74  A    between atoms: _169  and  _170
REMARK   75  A    between atoms: _170  and  _171
REMARK   76  A    between atoms: _175  and  _177
REMARK   77  A    between atoms: _177  and  _178
REMARK   78  A    between atoms: _177  and  _180
REMARK   79  A    between atoms: _180  and  _181
REMARK   80  A    between atoms: _184  and  _186
REMARK   81  A    between atoms: _186  and  _187
REMARK   82  A    between atoms: _186  and  _189
REMARK   83  A    between atoms: _189  and  _190
REMARK   84  A    between atoms: _192  and  _194
REMARK   85  A    between atoms: _194  and  _195
REMARK   86  A    between atoms: _194  and  _197
REMARK   87  A    between atoms: _197  and  _198
REMARK   88  A    between atoms: _198  and  _199
REMARK   89  A    between atoms: _199  and  _200
REMARK   90  A    between atoms: _209  and  _211
REMARK   91  A    between atoms: _211  and  _212
REMARK   92  A    between atoms: _211  and  _214
REMARK   93  A    between atoms: _214  and  _215
REMARK   94  A    between atoms: _218  and  _220
REMARK   95  A    between atoms: _220  and  _221
REMARK   96  A    between atoms: _220  and  _223
REMARK   97  A    between atoms: _223  and  _224
REMARK   98  A    between atoms: _224  and  _225
REMARK   99  A    between atoms: _228  and  _230
REMARK  100  A    between atoms: _230  and  _231
REMARK  101  A    between atoms: _230  and  _233
REMARK  102  A    between atoms: _233  and  _234
REMARK  103  A    between atoms: _237  and  _239
REMARK  104  A    between atoms: _239  and  _240
REMARK  105  A    between atoms: _239  and  _242
REMARK  106  A    between atoms: _242  and  _243
REMARK  107  A    between atoms: _246  and  _248
REMARK  108  A    between atoms: _248  and  _249
REMARK  109  A    between atoms: _251  and  _253
REMARK  110  A    between atoms: _253  and  _254
REMARK  111  A    between atoms: _253  and  _256
REMARK  112  A    between atoms: _259  and  _261
REMARK  113  A    between atoms: _261  and  _262
REMARK  114  A    between atoms: _261  and  _264
REMARK  115  A    between atoms: _264  and  _265
REMARK  116  A    between atoms: _268  and  _270
REMARK  117  A    between atoms: _270  and  _271
REMARK  118  A    between atoms: _270  and  _273
REMARK  119  A    between atoms: _276  and  _278
REMARK  120  A    between atoms: _278  and  _279
REMARK  121  A    between atoms: _278  and  _281
REMARK  122  A    between atoms: _281  and  _282
REMARK  123  A    between atoms: _282  and  _283
REMARK  124  A    between atoms: _288  and  _290
REMARK  125  A    between atoms: _290  and  _291
REMARK  126  A    between atoms: _290  and  _293
REMARK  127  A    between atoms: _293  and  _294
REMARK  128  A    between atoms: _297  and  _299
REMARK  129  A    between atoms: _299  and  _300
REMARK  130  A    between atoms: _299  and  _302
REMARK  131  A    between atoms: _302  and  _303
REMARK  132  A    between atoms: _306  and  _308
REMARK  133  A    between atoms: _308  and  _309
REMARK  134  A    between atoms: _308  and  _311
REMARK  135  A    between atoms: _311  and  _312
REMARK  136  A    between atoms: _312  and  _313
REMARK  137  A    between atoms: _315  and  _317
REMARK  138  A    between atoms: _317  and  _318
REMARK  139  A    between atoms: _317  and  _320
REMARK  140  A    between atoms: _320  and  _321
REMARK  141  A    between atoms: _321  and  _322
REMARK  142  A    between atoms: _325  and  _327
REMARK  143  A    between atoms: _327  and  _328
REMARK  144  A    between atoms: _327  and  _330
REMARK  145  A    between atoms: _330  and  _331
REMARK  146  A    between atoms: _334  and  _336
REMARK  147  A    between atoms: _336  and  _337
REMARK  148  A    between atoms: _336  and  _339
REMARK  149  A    between atoms: _339  and  _340
REMARK  150  A    between atoms: _343  and  _345
REMARK  151  A    between atoms: _345  and  _346
REMARK  152  A    between atoms: _345  and  _348
REMARK  153  A    between atoms: _348  and  _349
REMARK  154  A    between atoms: _352  and  _354
REMARK  155  A    between atoms: _354  and  _355
REMARK  156  A    between atoms: _354  and  _357
REMARK  157  A    between atoms: _357  and  _358
REMARK  158  A    between atoms: _363  and  _364
REMARK  159  A    between atoms: _366  and  _368
REMARK  160  A    between atoms: _368  and  _369
REMARK  161  A    between atoms: _368  and  _371
REMARK  162  A    between atoms: _371  and  _372
REMARK  163  A    between atoms: _372  and  _373
REMARK  164  A    between atoms: _373  and  _374
REMARK  165  A    between atoms: _374  and  _375
REMARK  166  A    between atoms: _379  and  _381
REMARK  167  A    between atoms: _381  and  _382
REMARK  168  A    between atoms: _381  and  _384
REMARK  169  A    between atoms: _384  and  _385
REMARK  170  A    between atoms: _388  and  _390
REMARK  171  A    between atoms: _390  and  _391
REMARK  172  A    between atoms: _390  and  _393
REMARK  173  A    between atoms: _393  and  _394
REMARK  174  A    between atoms: _397  and  _399
REMARK  175  A    between atoms: _399  and  _400
REMARK  176  A    between atoms: _399  and  _402
REMARK  177  A    between atoms: _402  and  _403
REMARK  178  A    between atoms: _403  and  _404
REMARK  179  A    between atoms: _404  and  _405
REMARK  180  A    between atoms: _405  and  _406
REMARK  181  A    between atoms: _411  and  _412
REMARK  182  A    between atoms: _417  and  _419
REMARK  183  A    between atoms: _419  and  _420
REMARK  184  A    between atoms: _419  and  _422
REMARK  185  A    between atoms: _422  and  _423
REMARK  186  A    between atoms: _425  and  _427
REMARK  187  A    between atoms: _427  and  _428
REMARK  188  A    between atoms: _427  and  _430
REMARK  189  A    between atoms: _430  and  _431
REMARK  190  A    between atoms: _436  and  _438
REMARK  191  A    between atoms: _438  and  _439
REMARK  192  A    between atoms: _438  and  _441
REMARK  193  A    between atoms: _441  and  _442
REMARK  194  A    between atoms: _445  and  _447
REMARK  195  A    between atoms: _447  and  _448
REMARK  196  A    between atoms: _447  and  _450
REMARK  197  A    between atoms: _450  and  _451
REMARK  198  A    between atoms: _454  and  _456
REMARK  199  A    between atoms: _456  and  _457
REMARK  200  A    between atoms: _456  and  _459
REMARK  201  A    between atoms: _459  and  _460
REMARK  202  A    between atoms: _463  and  _465
REMARK  203  A    between atoms: _465  and  _466
REMARK  204  A    between atoms: _465  and  _468
REMARK  205  A    between atoms: _468  and  _469
REMARK  206  A    between atoms: _469  and  _470
REMARK  207  A    between atoms: _470  and  _471
REMARK  208  A    between atoms: _471  and  _472
REMARK  209  A    between atoms: _476  and  _478
REMARK  210  A    between atoms: _478  and  _479
REMARK  211  A    between atoms: _478  and  _481
REMARK  212  A    between atoms: _481  and  _482
REMARK  213  A    between atoms: _485  and  _487
REMARK  214  A    between atoms: _487  and  _488
REMARK  215  A    between atoms: _487  and  _490
REMARK  216  A    between atoms: _492  and  _494
REMARK  217  A    between atoms: _494  and  _495
REMARK  218  A    between atoms: _494  and  _497
REMARK  219  A    between atoms: _497  and  _498
REMARK  220  A    between atoms: _501  and  _503
REMARK  221  A    between atoms: _503  and  _504
REMARK  222  A    between atoms: _503  and  _506
REMARK  223  A    between atoms: _506  and  _507
REMARK  224  A    between atoms: _513  and  _515
REMARK  225  A    between atoms: _515  and  _516
REMARK  226  A    between atoms: _518  and  _520
REMARK  227  A    between atoms: _520  and  _521
REMARK  228  A    between atoms: _520  and  _523
REMARK  229  A    between atoms: _523  and  _524
REMARK  230  A    between atoms: _527  and  _529
REMARK  231  A    between atoms: _529  and  _530
REMARK  232  A    between atoms: _529  and  _532
REMARK  233  A    between atoms: _532  and  _533
REMARK                            x       y       z     vdW  Elec       q    Type
REMARK                         _______ _______ _______ _____ _____    ______ ____
ROOT
ATOM      1  O   HOH     1      12.439  -4.516  38.925  0.00  0.00    +0.000 OA
ENDROOT
TORSDOF 0
REMARK  Name = ../refined-set-2016/3i60/3i60_pocket.pdb
REMARK  233 active torsions:
REMARK  status: ('A' for Active; 'I' for Inactive)
REMARK    1  A    between atoms: _1  and  _3
REMARK    2  A    between atoms: _3  and  _4
REMARK    3  A    between atoms: _3  and  _6
REMARK    4  A    between atoms: _6  and  _7
REMARK    5  A    between atoms: _9  and  _11
REMARK    6  A    between atoms: _11  and  _12
REMARK    7  A    between atoms: _11  and  _14
REMARK    8  A    between atoms: _14  and  _15
REMARK    9  A    between atoms: _20  and  _21
REMARK   10  A    between atoms: _23  and  _25
REMARK   11  A    between atoms: _25  and  _26
REMARK   12  A    between atoms: _25  and  _28
REMARK   13  A    between atoms: _28  and  _29
REMARK   14  A    between atoms: _32  and  _34
REMARK   15  A    between atoms: _34  and  _35
REMARK   16  A    between atoms: _37  and  _39
REMARK   17  A    between atoms: _39  and  _40
REMARK   18  A    between atoms: _39  and  _42
REMARK   19  A    between atoms: _42  and  _43
REMARK   20  A    between atoms: _43  and  _44
REMARK   21  A    between atoms: _47  and  _49
REMARK   22  A    between atoms: _49  and  _50
REMARK   23  A    between atoms: _52  and  _54
REMARK   24  A    between atoms: _54  and  _55
REMARK   25  A    between atoms: _58  and  _60
REMARK   26  A    between atoms: _60  and  _61
REMARK   27  A    between atoms: _60  and  _63
REMARK   28  A    between atoms: _63  and  _64
REMARK   29  A    between atoms: _69  and  _70
REMARK   30  A    between atoms: _72  and  _74
REMARK   31  A    between atoms: _74  and  _75
REMARK   32  A    between atoms: _77  and  _79
REMARK   33  A    between atoms: _79  and  _80
REMARK   34  A    between atoms: _79  and  _82
REMARK   35  A    between atoms: _82  and  _83
REMARK   36  A    between atoms: _83  and  _84
REMARK   37  A    between atoms: _86  and  _88
REMARK   38  A    between atoms: _88  and  _89
REMARK   39  A    between atoms: _88  and  _91
REMARK   40  A    between atoms: _94  and  _96
REMARK   41  A    between atoms: _96  and  _97
REMARK   42  A    between atoms: _96  and  _99
REMARK   43  A    between atoms: _101  and  _103
REMARK   44  A    between atoms: _103  and  _104
REMARK   45  A    between atoms: _103  and  _106
REMARK   46  A    between atoms: _106  and  _107
REMARK   47  A    between atoms: _109  and  _111
REMARK   48  A    between atoms: _111  and  _112
REMARK   49  A    between atoms: _111  and  _114
REMARK   50  A    between atoms: _114  and  _115
REMARK   51  A    between atoms: _115  and  _116
REMARK   52  A    between atoms: _116  and  _117
REMARK   53  A    between atoms: _126  and  _128
REMARK   54  A    between atoms: _128  and  _129
REMARK   55  A    between atoms: _128  and  _131
REMARK   56  A    between atoms: _134  and  _136
REMARK   57  A    between atoms: _136  and  _137
REMARK   58  A    between atoms: _140  and  _142
REMARK   59  A    between atoms: _142  and  _143
REMARK   60  A    between atoms: _142  and  _145
REMARK   61  A    between atoms: _145  and  _146
REMARK   62  A    between atoms: _149  and  _151
REMARK   63  A    between atoms: _151  and  _152
REMARK   64  A    between atoms: _151  and  _154
REMARK   65  A    between atoms: _154  and  _155
REMARK   66  A    between atoms: _155  and  _156
REMARK   67  A    between atoms: _156  and  _157
REMARK   68  A    between atoms: _157  and  _158
REMARK   69  A    between atoms: _162  and  _164
REMARK   70  A    between atoms: _164  and  _165
REMARK   71  A    between atoms: _164  and  _167
REMARK   72  A    between atoms: _167  and  _168
REMARK   73  A    between atoms: _168  and  _169
REMARK   74  A    between atoms: _169  and  _170
REMARK   75  A    between atoms: _170  and  _171
REMARK   76  A    between atoms: _175  and  _177
REMARK   77  A    between atoms: _177  and  _178
REMARK   78  A    between atoms: _177  and  _180
REMARK   79  A    between atoms: _180  and  _181
REMARK   80  A    between atoms: _184  and  _186
REMARK   81  A    between atoms: _186  and  _187
REMARK   82  A    between atoms: _186  and  _189
REMARK   83  A    between atoms: _189  and  _190
REMARK   84  A    between atoms: _192  and  _194
REMARK   85  A    between atoms: _194  and  _195
REMARK   86  A    between atoms: _194  and  _197
REMARK   87  A    between atoms: _197  and  _198
REMARK   88  A    between atoms: _198  and  _199
REMARK   89  A    between atoms: _199  and  _200
REMARK   90  A    between atoms: _209  and  _211
REMARK   91  A    between atoms: _211  and  _212
REMARK   92  A    between atoms: _211  and  _214
REMARK   93  A    between atoms: _214  and  _215
REMARK   94  A    between atoms: _218  and  _220
REMARK   95  A    between atoms: _220  and  _221
REMARK   96  A    between atoms: _220  and  _223
REMARK   97  A    between atoms: _223  and  _224
REMARK   98  A    between atoms: _224  and  _225
REMARK   99  A    between atoms: _228  and  _230
REMARK  100  A    between atoms: _230  and  _231
REMARK  101  A    between atoms: _230  and  _233
REMARK  102  A    between atoms: _233  and  _234
REMARK  103  A    between atoms: _237  and  _239
REMARK  104  A    between atoms: _239  and  _240
REMARK  105  A    between atoms: _239  and  _242
REMARK  106  A    between atoms: _242  and  _243
REMARK  107  A    between atoms: _246  and  _248
REMARK  108  A    between atoms: _248  and  _249
REMARK  109  A    between atoms: _251  and  _253
REMARK  110  A    between atoms: _253  and  _254
REMARK  111  A    between atoms: _253  and  _256
REMARK  112  A    between atoms: _259  and  _261
REMARK  113  A    between atoms: _261  and  _262
REMARK  114  A    between atoms: _261  and  _264
REMARK  115  A    between atoms: _264  and  _265
REMARK  116  A    between atoms: _268  and  _270
REMARK  117  A    between atoms: _270  and  _271
REMARK  118  A    between atoms: _270  and  _273
REMARK  119  A    between atoms: _276  and  _278
REMARK  120  A    between atoms: _278  and  _279
REMARK  121  A    between atoms: _278  and  _281
REMARK  122  A    between atoms: _281  and  _282
REMARK  123  A    between atoms: _282  and  _283
REMARK  124  A    between atoms: _288  and  _290
REMARK  125  A    between atoms: _290  and  _291
REMARK  126  A    between atoms: _290  and  _293
REMARK  127  A    between atoms: _293  and  _294
REMARK  128  A    between atoms: _297  and  _299
REMARK  129  A    between atoms: _299  and  _300
REMARK  130  A    between atoms: _299  and  _302
REMARK  131  A    between atoms: _302  and  _303
REMARK  132  A    between atoms: _306  and  _308
REMARK  133  A    between atoms: _308  and  _309
REMARK  134  A    between atoms: _308  and  _311
REMARK  135  A    between atoms: _311  and  _312
REMARK  136  A    between atoms: _312  and  _313
REMARK  137  A    between atoms: _315  and  _317
REMARK  138  A    between atoms: _317  and  _318
REMARK  139  A    between atoms: _317  and  _320
REMARK  140  A    between atoms: _320  and  _321
REMARK  141  A    between atoms: _321  and  _322
REMARK  142  A    between atoms: _325  and  _327
REMARK  143  A    between atoms: _327  and  _328
REMARK  144  A    between atoms: _327  and  _330
REMARK  145  A    between atoms: _330  and  _331
REMARK  146  A    between atoms: _334  and  _336
REMARK  147  A    between atoms: _336  and  _337
REMARK  148  A    between atoms: _336  and  _339
REMARK  149  A    between atoms: _339  and  _340
REMARK  150  A    between atoms: _343  and  _345
REMARK  151  A    between atoms: _345  and  _346
REMARK  152  A    between atoms: _345  and  _348
REMARK  153  A    between atoms: _348  and  _349
REMARK  154  A    between atoms: _352  and  _354
REMARK  155  A    between atoms: _354  and  _355
REMARK  156  A    between atoms: _354  and  _357
REMARK  157  A    between atoms: _357  and  _358
REMARK  158  A    between atoms: _363  and  _364
REMARK  159  A    between atoms: _366  and  _368
REMARK  160  A    between atoms: _368  and  _369
REMARK  161  A    between atoms: _368  and  _371
REMARK  162  A    between atoms: _371  and  _372
REMARK  163  A    between atoms: _372  and  _373
REMARK  164  A    between atoms: _373  and  _374
REMARK  165  A    between atoms: _374  and  _375
REMARK  166  A    between atoms: _379  and  _381
REMARK  167  A    between atoms: _381  and  _382
REMARK  168  A    between atoms: _381  and  _384
REMARK  169  A    between atoms: _384  and  _385
REMARK  170  A    between atoms: _388  and  _390
REMARK  171  A    between atoms: _390  and  _391
REMARK  172  A    between atoms: _390  and  _393
REMARK  173  A    between atoms: _393  and  _394
REMARK  174  A    between atoms: _397  and  _399
REMARK  175  A    between atoms: _399  and  _400
REMARK  176  A    between atoms: _399  and  _402
REMARK  177  A    between atoms: _402  and  _403
REMARK  178  A    between atoms: _403  and  _404
REMARK  179  A    between atoms: _404  and  _405
REMARK  180  A    between atoms: _405  and  _406
REMARK  181  A    between atoms: _411  and  _412
REMARK  182  A    between atoms: _417  and  _419
REMARK  183  A    between atoms: _419  and  _420
REMARK  184  A    between atoms: _419  and  _422
REMARK  185  A    between atoms: _422  and  _423
REMARK  186  A    between atoms: _425  and  _427
REMARK  187  A    between atoms: _427  and  _428
REMARK  188  A    between atoms: _427  and  _430
REMARK  189  A    between atoms: _430  and  _431
REMARK  190  A    between atoms: _436  and  _438
REMARK  191  A    between atoms: _438  and  _439
REMARK  192  A    between atoms: _438  and  _441
REMARK  193  A    between atoms: _441  and  _442
REMARK  194  A    between atoms: _445  and  _447
REMARK  195  A    between atoms: _447  and  _448
REMARK  196  A    between atoms: _447  and  _450
REMARK  197  A    between atoms: _450  and  _451
REMARK  198  A    between atoms: _454  and  _456
REMARK  199  A    between atoms: _456  and  _457
REMARK  200  A    between atoms: _456  and  _459
REMARK  201  A    between atoms: _459  and  _460
REMARK  202  A    between atoms: _463  and  _465
REMARK  203  A    between atoms: _465  and  _466
REMARK  204  A    between atoms: _465  and  _468
REMARK  205  A    between atoms: _468  and  _469
REMARK  206  A    between atoms: _469  and  _470
REMARK  207  A    between atoms: _470  and  _471
REMARK  208  A    between atoms: _471  and  _472
REMARK  209  A    between atoms: _476  and  _478
REMARK  210  A    between atoms: _478  and  _479
REMARK  211  A    between atoms: _478  and  _481
REMARK  212  A    between atoms: _481  and  _482
REMARK  213  A    between atoms: _485  and  _487
REMARK  214  A    between atoms: _487  and  _488
REMARK  215  A    between atoms: _487  and  _490
REMARK  216  A    between atoms: _492  and  _494
REMARK  217  A    between atoms: _494  and  _495
REMARK  218  A    between atoms: _494  and  _497
REMARK  219  A    between atoms: _497  and  _498
REMARK  220  A    between atoms: _501  and  _503
REMARK  221  A    between atoms: _503  and  _504
REMARK  222  A    between atoms: _503  and  _506
REMARK  223  A    between atoms: _506  and  _507
REMARK  224  A    between atoms: _513  and  _515
REMARK  225  A    between atoms: _515  and  _516
REMARK  226  A    between atoms: _518  and  _520
REMARK  227  A    between atoms: _520  and  _521
REMARK  228  A    between atoms: _520  and  _523
REMARK  229  A    between atoms: _523  and  _524
REMARK  230  A    between atoms: _527  and  _529
REMARK  231  A    between atoms: _529  and  _530
REMARK  232  A    between atoms: _529  and  _532
REMARK  233  A    between atoms: _532  and  _533
REMARK                            x       y       z     vdW  Elec       q    Type
REMARK                         _______ _______ _______ _____ _____    ______ ____
ROOT
ATOM      1  O   HOH     1      10.011  -5.568  39.767  0.00  0.00    +0.000 OA
ENDROOT
TORSDOF 0
REMARK  Name = ../refined-set-2016/3i60/3i60_pocket.pdb
REMARK  233 active torsions:
REMARK  status: ('A' for Active; 'I' for Inactive)
REMARK    1  A    between atoms: _1  and  _3
REMARK    2  A    between atoms: _3  and  _4
REMARK    3  A    between atoms: _3  and  _6
REMARK    4  A    between atoms: _6  and  _7
REMARK    5  A    between atoms: _9  and  _11
REMARK    6  A    between atoms: _11  and  _12
REMARK    7  A    between atoms: _11  and  _14
REMARK    8  A    between atoms: _14  and  _15
REMARK    9  A    between atoms: _20  and  _21
REMARK   10  A    between atoms: _23  and  _25
REMARK   11  A    between atoms: _25  and  _26
REMARK   12  A    between atoms: _25  and  _28
REMARK   13  A    between atoms: _28  and  _29
REMARK   14  A    between atoms: _32  and  _34
REMARK   15  A    between atoms: _34  and  _35
REMARK   16  A    between atoms: _37  and  _39
REMARK   17  A    between atoms: _39  and  _40
REMARK   18  A    between atoms: _39  and  _42
REMARK   19  A    between atoms: _42  and  _43
REMARK   20  A    between atoms: _43  and  _44
REMARK   21  A    between atoms: _47  and  _49
REMARK   22  A    between atoms: _49  and  _50
REMARK   23  A    between atoms: _52  and  _54
REMARK   24  A    between atoms: _54  and  _55
REMARK   25  A    between atoms: _58  and  _60
REMARK   26  A    between atoms: _60  and  _61
REMARK   27  A    between atoms: _60  and  _63
REMARK   28  A    between atoms: _63  and  _64
REMARK   29  A    between atoms: _69  and  _70
REMARK   30  A    between atoms: _72  and  _74
REMARK   31  A    between atoms: _74  and  _75
REMARK   32  A    between atoms: _77  and  _79
REMARK   33  A    between atoms: _79  and  _80
REMARK   34  A    between atoms: _79  and  _82
REMARK   35  A    between atoms: _82  and  _83
REMARK   36  A    between atoms: _83  and  _84
REMARK   37  A    between atoms: _86  and  _88
REMARK   38  A    between atoms: _88  and  _89
REMARK   39  A    between atoms: _88  and  _91
REMARK   40  A    between atoms: _94  and  _96
REMARK   41  A    between atoms: _96  and  _97
REMARK   42  A    between atoms: _96  and  _99
REMARK   43  A    between atoms: _101  and  _103
REMARK   44  A    between atoms: _103  and  _104
REMARK   45  A    between atoms: _103  and  _106
REMARK   46  A    between atoms: _106  and  _107
REMARK   47  A    between atoms: _109  and  _111
REMARK   48  A    between atoms: _111  and  _112
REMARK   49  A    between atoms: _111  and  _114
REMARK   50  A    between atoms: _114  and  _115
REMARK   51  A    between atoms: _115  and  _116
REMARK   52  A    between atoms: _116  and  _117
REMARK   53  A    between atoms: _126  and  _128
REMARK   54  A    between atoms: _128  and  _129
REMARK   55  A    between atoms: _128  and  _131
REMARK   56  A    between atoms: _134  and  _136
REMARK   57  A    between atoms: _136  and  _137
REMARK   58  A    between atoms: _140  and  _142
REMARK   59  A    between atoms: _142  and  _143
REMARK   60  A    between atoms: _142  and  _145
REMARK   61  A    between atoms: _145  and  _146
REMARK   62  A    between atoms: _149  and  _151
REMARK   63  A    between atoms: _151  and  _152
REMARK   64  A    between atoms: _151  and  _154
REMARK   65  A    between atoms: _154  and  _155
REMARK   66  A    between atoms: _155  and  _156
REMARK   67  A    between atoms: _156  and  _157
REMARK   68  A    between atoms: _157  and  _158
REMARK   69  A    between atoms: _162  and  _164
REMARK   70  A    between atoms: _164  and  _165
REMARK   71  A    between atoms: _164  and  _167
REMARK   72  A    between atoms: _167  and  _168
REMARK   73  A    between atoms: _168  and  _169
REMARK   74  A    between atoms: _169  and  _170
REMARK   75  A    between atoms: _170  and  _171
REMARK   76  A    between atoms: _175  and  _177
REMARK   77  A    between atoms: _177  and  _178
REMARK   78  A    between atoms: _177  and  _180
REMARK   79  A    between atoms: _180  and  _181
REMARK   80  A    between atoms: _184  and  _186
REMARK   81  A    between atoms: _186  and  _187
REMARK   82  A    between atoms: _186  and  _189
REMARK   83  A    between atoms: _189  and  _190
REMARK   84  A    between atoms: _192  and  _194
REMARK   85  A    between atoms: _194  and  _195
REMARK   86  A    between atoms: _194  and  _197
REMARK   87  A    between atoms: _197  and  _198
REMARK   88  A    between atoms: _198  and  _199
REMARK   89  A    between atoms: _199  and  _200
REMARK   90  A    between atoms: _209  and  _211
REMARK   91  A    between atoms: _211  and  _212
REMARK   92  A    between atoms: _211  and  _214
REMARK   93  A    between atoms: _214  and  _215
REMARK   94  A    between atoms: _218  and  _220
REMARK   95  A    between atoms: _220  and  _221
REMARK   96  A    between atoms: _220  and  _223
REMARK   97  A    between atoms: _223  and  _224
REMARK   98  A    between atoms: _224  and  _225
REMARK   99  A    between atoms: _228  and  _230
REMARK  100  A    between atoms: _230  and  _231
REMARK  101  A    between atoms: _230  and  _233
REMARK  102  A    between atoms: _233  and  _234
REMARK  103  A    between atoms: _237  and  _239
REMARK  104  A    between atoms: _239  and  _240
REMARK  105  A    between atoms: _239  and  _242
REMARK  106  A    between atoms: _242  and  _243
REMARK  107  A    between atoms: _246  and  _248
REMARK  108  A    between atoms: _248  and  _249
REMARK  109  A    between atoms: _251  and  _253
REMARK  110  A    between atoms: _253  and  _254
REMARK  111  A    between atoms: _253  and  _256
REMARK  112  A    between atoms: _259  and  _261
REMARK  113  A    between atoms: _261  and  _262
REMARK  114  A    between atoms: _261  and  _264
REMARK  115  A    between atoms: _264  and  _265
REMARK  116  A    between atoms: _268  and  _270
REMARK  117  A    between atoms: _270  and  _271
REMARK  118  A    between atoms: _270  and  _273
REMARK  119  A    between atoms: _276  and  _278
REMARK  120  A    between atoms: _278  and  _279
REMARK  121  A    between atoms: _278  and  _281
REMARK  122  A    between atoms: _281  and  _282
REMARK  123  A    between atoms: _282  and  _283
REMARK  124  A    between atoms: _288  and  _290
REMARK  125  A    between atoms: _290  and  _291
REMARK  126  A    between atoms: _290  and  _293
REMARK  127  A    between atoms: _293  and  _294
REMARK  128  A    between atoms: _297  and  _299
REMARK  129  A    between atoms: _299  and  _300
REMARK  130  A    between atoms: _299  and  _302
REMARK  131  A    between atoms: _302  and  _303
REMARK  132  A    between atoms: _306  and  _308
REMARK  133  A    between atoms: _308  and  _309
REMARK  134  A    between atoms: _308  and  _311
REMARK  135  A    between atoms: _311  and  _312
REMARK  136  A    between atoms: _312  and  _313
REMARK  137  A    between atoms: _315  and  _317
REMARK  138  A    between atoms: _317  and  _318
REMARK  139  A    between atoms: _317  and  _320
REMARK  140  A    between atoms: _320  and  _321
REMARK  141  A    between atoms: _321  and  _322
REMARK  142  A    between atoms: _325  and  _327
REMARK  143  A    between atoms: _327  and  _328
REMARK  144  A    between atoms: _327  and  _330
REMARK  145  A    between atoms: _330  and  _331
REMARK  146  A    between atoms: _334  and  _336
REMARK  147  A    between atoms: _336  and  _337
REMARK  148  A    between atoms: _336  and  _339
REMARK  149  A    between atoms: _339  and  _340
REMARK  150  A    between atoms: _343  and  _345
REMARK  151  A    between atoms: _345  and  _346
REMARK  152  A    between atoms: _345  and  _348
REMARK  153  A    between atoms: _348  and  _349
REMARK  154  A    between atoms: _352  and  _354
REMARK  155  A    between atoms: _354  and  _355
REMARK  156  A    between atoms: _354  and  _357
REMARK  157  A    between atoms: _357  and  _358
REMARK  158  A    between atoms: _363  and  _364
REMARK  159  A    between atoms: _366  and  _368
REMARK  160  A    between atoms: _368  and  _369
REMARK  161  A    between atoms: _368  and  _371
REMARK  162  A    between atoms: _371  and  _372
REMARK  163  A    between atoms: _372  and  _373
REMARK  164  A    between atoms: _373  and  _374
REMARK  165  A    between atoms: _374  and  _375
REMARK  166  A    between atoms: _379  and  _381
REMARK  167  A    between atoms: _381  and  _382
REMARK  168  A    between atoms: _381  and  _384
REMARK  169  A    between atoms: _384  and  _385
REMARK  170  A    between atoms: _388  and  _390
REMARK  171  A    between atoms: _390  and  _391
REMARK  172  A    between atoms: _390  and  _393
REMARK  173  A    between atoms: _393  and  _394
REMARK  174  A    between atoms: _397  and  _399
REMARK  175  A    between atoms: _399  and  _400
REMARK  176  A    between atoms: _399  and  _402
REMARK  177  A    between atoms: _402  and  _403
REMARK  178  A    between atoms: _403  and  _404
REMARK  179  A    between atoms: _404  and  _405
REMARK  180  A    between atoms: _405  and  _406
REMARK  181  A    between atoms: _411  and  _412
REMARK  182  A    between atoms: _417  and  _419
REMARK  183  A    between atoms: _419  and  _420
REMARK  184  A    between atoms: _419  and  _422
REMARK  185  A    between atoms: _422  and  _423
REMARK  186  A    between atoms: _425  and  _427
REMARK  187  A    between atoms: _427  and  _428
REMARK  188  A    between atoms: _427  and  _430
REMARK  189  A    between atoms: _430  and  _431
REMARK  190  A    between atoms: _436  and  _438
REMARK  191  A    between atoms: _438  and  _439
REMARK  192  A    between atoms: _438  and  _441
REMARK  193  A    between atoms: _441  and  _442
REMARK  194  A    between atoms: _445  and  _447
REMARK  195  A    between atoms: _447  and  _448
REMARK  196  A    between atoms: _447  and  _450
REMARK  197  A    between atoms: _450  and  _451
REMARK  198  A    between atoms: _454  and  _456
REMARK  199  A    between atoms: _456  and  _457
REMARK  200  A    between atoms: _456  and  _459
REMARK  201  A    between atoms: _459  and  _460
REMARK  202  A    between atoms: _463  and  _465
REMARK  203  A    between atoms: _465  and  _466
REMARK  204  A    between atoms: _465  and  _468
REMARK  205  A    between atoms: _468  and  _469
REMARK  206  A    between atoms: _469  and  _470
REMARK  207  A    between atoms: _470  and  _471
REMARK  208  A    between atoms: _471  and  _472
REMARK  209  A    between atoms: _476  and  _478
REMARK  210  A    between atoms: _478  and  _479
REMARK  211  A    between atoms: _478  and  _481
REMARK  212  A    between atoms: _481  and  _482
REMARK  213  A    between atoms: _485  and  _487
REMARK  214  A    between atoms: _487  and  _488
REMARK  215  A    between atoms: _487  and  _490
REMARK  216  A    between atoms: _492  and  _494
REMARK  217  A    between atoms: _494  and  _495
REMARK  218  A    between atoms: _494  and  _497
REMARK  219  A    between atoms: _497  and  _498
REMARK  220  A    between atoms: _501  and  _503
REMARK  221  A    between atoms: _503  and  _504
REMARK  222  A    between atoms: _503  and  _506
REMARK  223  A    between atoms: _506  and  _507
REMARK  224  A    between atoms: _513  and  _515
REMARK  225  A    between atoms: _515  and  _516
REMARK  226  A    between atoms: _518  and  _520
REMARK  227  A    between atoms: _520  and  _521
REMARK  228  A    between atoms: _520  and  _523
REMARK  229  A    between atoms: _523  and  _524
REMARK  230  A    between atoms: _527  and  _529
REMARK  231  A    between atoms: _529  and  _530
REMARK  232  A    between atoms: _529  and  _532
REMARK  233  A    between atoms: _532  and  _533
REMARK                            x       y       z     vdW  Elec       q    Type
REMARK                         _______ _______ _______ _____ _____    ______ ____
ROOT
ATOM      1  O   HOH     1      17.134  -4.486  43.284  0.00  0.00    +0.000 OA
ENDROOT
TORSDOF 0
REMARK  Name = ../refined-set-2016/3i60/3i60_pocket.pdb
REMARK  233 active torsions:
REMARK  status: ('A' for Active; 'I' for Inactive)
REMARK    1  A    between atoms: _1  and  _3
REMARK    2  A    between atoms: _3  and  _4
REMARK    3  A    between atoms: _3  and  _6
REMARK    4  A    between atoms: _6  and  _7
REMARK    5  A    between atoms: _9  and  _11
REMARK    6  A    between atoms: _11  and  _12
REMARK    7  A    between atoms: _11  and  _14
REMARK    8  A    between atoms: _14  and  _15
REMARK    9  A    between atoms: _20  and  _21
REMARK   10  A    between atoms: _23  and  _25
REMARK   11  A    between atoms: _25  and  _26
REMARK   12  A    between atoms: _25  and  _28
REMARK   13  A    between atoms: _28  and  _29
REMARK   14  A    between atoms: _32  and  _34
REMARK   15  A    between atoms: _34  and  _35
REMARK   16  A    between atoms: _37  and  _39
REMARK   17  A    between atoms: _39  and  _40
REMARK   18  A    between atoms: _39  and  _42
REMARK   19  A    between atoms: _42  and  _43
REMARK   20  A    between atoms: _43  and  _44
REMARK   21  A    between atoms: _47  and  _49
REMARK   22  A    between atoms: _49  and  _50
REMARK   23  A    between atoms: _52  and  _54
REMARK   24  A    between atoms: _54  and  _55
REMARK   25  A    between atoms: _58  and  _60
REMARK   26  A    between atoms: _60  and  _61
REMARK   27  A    between atoms: _60  and  _63
REMARK   28  A    between atoms: _63  and  _64
REMARK   29  A    between atoms: _69  and  _70
REMARK   30  A    between atoms: _72  and  _74
REMARK   31  A    between atoms: _74  and  _75
REMARK   32  A    between atoms: _77  and  _79
REMARK   33  A    between atoms: _79  and  _80
REMARK   34  A    between atoms: _79  and  _82
REMARK   35  A    between atoms: _82  and  _83
REMARK   36  A    between atoms: _83  and  _84
REMARK   37  A    between atoms: _86  and  _88
REMARK   38  A    between atoms: _88  and  _89
REMARK   39  A    between atoms: _88  and  _91
REMARK   40  A    between atoms: _94  and  _96
REMARK   41  A    between atoms: _96  and  _97
REMARK   42  A    between atoms: _96  and  _99
REMARK   43  A    between atoms: _101  and  _103
REMARK   44  A    between atoms: _103  and  _104
REMARK   45  A    between atoms: _103  and  _106
REMARK   46  A    between atoms: _106  and  _107
REMARK   47  A    between atoms: _109  and  _111
REMARK   48  A    between atoms: _111  and  _112
REMARK   49  A    between atoms: _111  and  _114
REMARK   50  A    between atoms: _114  and  _115
REMARK   51  A    between atoms: _115  and  _116
REMARK   52  A    between atoms: _116  and  _117
REMARK   53  A    between atoms: _126  and  _128
REMARK   54  A    between atoms: _128  and  _129
REMARK   55  A    between atoms: _128  and  _131
REMARK   56  A    between atoms: _134  and  _136
REMARK   57  A    between atoms: _136  and  _137
REMARK   58  A    between atoms: _140  and  _142
REMARK   59  A    between atoms: _142  and  _143
REMARK   60  A    between atoms: _142  and  _145
REMARK   61  A    between atoms: _145  and  _146
REMARK   62  A    between atoms: _149  and  _151
REMARK   63  A    between atoms: _151  and  _152
REMARK   64  A    between atoms: _151  and  _154
REMARK   65  A    between atoms: _154  and  _155
REMARK   66  A    between atoms: _155  and  _156
REMARK   67  A    between atoms: _156  and  _157
REMARK   68  A    between atoms: _157  and  _158
REMARK   69  A    between atoms: _162  and  _164
REMARK   70  A    between atoms: _164  and  _165
REMARK   71  A    between atoms: _164  and  _167
REMARK   72  A    between atoms: _167  and  _168
REMARK   73  A    between atoms: _168  and  _169
REMARK   74  A    between atoms: _169  and  _170
REMARK   75  A    between atoms: _170  and  _171
REMARK   76  A    between atoms: _175  and  _177
REMARK   77  A    between atoms: _177  and  _178
REMARK   78  A    between atoms: _177  and  _180
REMARK   79  A    between atoms: _180  and  _181
REMARK   80  A    between atoms: _184  and  _186
REMARK   81  A    between atoms: _186  and  _187
REMARK   82  A    between atoms: _186  and  _189
REMARK   83  A    between atoms: _189  and  _190
REMARK   84  A    between atoms: _192  and  _194
REMARK   85  A    between atoms: _194  and  _195
REMARK   86  A    between atoms: _194  and  _197
REMARK   87  A    between atoms: _197  and  _198
REMARK   88  A    between atoms: _198  and  _199
REMARK   89  A    between atoms: _199  and  _200
REMARK   90  A    between atoms: _209  and  _211
REMARK   91  A    between atoms: _211  and  _212
REMARK   92  A    between atoms: _211  and  _214
REMARK   93  A    between atoms: _214  and  _215
REMARK   94  A    between atoms: _218  and  _220
REMARK   95  A    between atoms: _220  and  _221
REMARK   96  A    between atoms: _220  and  _223
REMARK   97  A    between atoms: _223  and  _224
REMARK   98  A    between atoms: _224  and  _225
REMARK   99  A    between atoms: _228  and  _230
REMARK  100  A    between atoms: _230  and  _231
REMARK  101  A    between atoms: _230  and  _233
REMARK  102  A    between atoms: _233  and  _234
REMARK  103  A    between atoms: _237  and  _239
REMARK  104  A    between atoms: _239  and  _240
REMARK  105  A    between atoms: _239  and  _242
REMARK  106  A    between atoms: _242  and  _243
REMARK  107  A    between atoms: _246  and  _248
REMARK  108  A    between atoms: _248  and  _249
REMARK  109  A    between atoms: _251  and  _253
REMARK  110  A    between atoms: _253  and  _254
REMARK  111  A    between atoms: _253  and  _256
REMARK  112  A    between atoms: _259  and  _261
REMARK  113  A    between atoms: _261  and  _262
REMARK  114  A    between atoms: _261  and  _264
REMARK  115  A    between atoms: _264  and  _265
REMARK  116  A    between atoms: _268  and  _270
REMARK  117  A    between atoms: _270  and  _271
REMARK  118  A    between atoms: _270  and  _273
REMARK  119  A    between atoms: _276  and  _278
REMARK  120  A    between atoms: _278  and  _279
REMARK  121  A    between atoms: _278  and  _281
REMARK  122  A    between atoms: _281  and  _282
REMARK  123  A    between atoms: _282  and  _283
REMARK  124  A    between atoms: _288  and  _290
REMARK  125  A    between atoms: _290  and  _291
REMARK  126  A    between atoms: _290  and  _293
REMARK  127  A    between atoms: _293  and  _294
REMARK  128  A    between atoms: _297  and  _299
REMARK  129  A    between atoms: _299  and  _300
REMARK  130  A    between atoms: _299  and  _302
REMARK  131  A    between atoms: _302  and  _303
REMARK  132  A    between atoms: _306  and  _308
REMARK  133  A    between atoms: _308  and  _309
REMARK  134  A    between atoms: _308  and  _311
REMARK  135  A    between atoms: _311  and  _312
REMARK  136  A    between atoms: _312  and  _313
REMARK  137  A    between atoms: _315  and  _317
REMARK  138  A    between atoms: _317  and  _318
REMARK  139  A    between atoms: _317  and  _320
REMARK  140  A    between atoms: _320  and  _321
REMARK  141  A    between atoms: _321  and  _322
REMARK  142  A    between atoms: _325  and  _327
REMARK  143  A    between atoms: _327  and  _328
REMARK  144  A    between atoms: _327  and  _330
REMARK  145  A    between atoms: _330  and  _331
REMARK  146  A    between atoms: _334  and  _336
REMARK  147  A    between atoms: _336  and  _337
REMARK  148  A    between atoms: _336  and  _339
REMARK  149  A    between atoms: _339  and  _340
REMARK  150  A    between atoms: _343  and  _345
REMARK  151  A    between atoms: _345  and  _346
REMARK  152  A    between atoms: _345  and  _348
REMARK  153  A    between atoms: _348  and  _349
REMARK  154  A    between atoms: _352  and  _354
REMARK  155  A    between atoms: _354  and  _355
REMARK  156  A    between atoms: _354  and  _357
REMARK  157  A    between atoms: _357  and  _358
REMARK  158  A    between atoms: _363  and  _364
REMARK  159  A    between atoms: _366  and  _368
REMARK  160  A    between atoms: _368  and  _369
REMARK  161  A    between atoms: _368  and  _371
REMARK  162  A    between atoms: _371  and  _372
REMARK  163  A    between atoms: _372  and  _373
REMARK  164  A    between atoms: _373  and  _374
REMARK  165  A    between atoms: _374  and  _375
REMARK  166  A    between atoms: _379  and  _381
REMARK  167  A    between atoms: _381  and  _382
REMARK  168  A    between atoms: _381  and  _384
REMARK  169  A    between atoms: _384  and  _385
REMARK  170  A    between atoms: _388  and  _390
REMARK  171  A    between atoms: _390  and  _391
REMARK  172  A    between atoms: _390  and  _393
REMARK  173  A    between atoms: _393  and  _394
REMARK  174  A    between atoms: _397  and  _399
REMARK  175  A    between atoms: _399  and  _400
REMARK  176  A    between atoms: _399  and  _402
REMARK  177  A    between atoms: _402  and  _403
REMARK  178  A    between atoms: _403  and  _404
REMARK  179  A    between atoms: _404  and  _405
REMARK  180  A    between atoms: _405  and  _406
REMARK  181  A    between atoms: _411  and  _412
REMARK  182  A    between atoms: _417  and  _419
REMARK  183  A    between atoms: _419  and  _420
REMARK  184  A    between atoms: _419  and  _422
REMARK  185  A    between atoms: _422  and  _423
REMARK  186  A    between atoms: _425  and  _427
REMARK  187  A    between atoms: _427  and  _428
REMARK  188  A    between atoms: _427  and  _430
REMARK  189  A    between atoms: _430  and  _431
REMARK  190  A    between atoms: _436  and  _438
REMARK  191  A    between atoms: _438  and  _439
REMARK  192  A    between atoms: _438  and  _441
REMARK  193  A    between atoms: _441  and  _442
REMARK  194  A    between atoms: _445  and  _447
REMARK  195  A    between atoms: _447  and  _448
REMARK  196  A    between atoms: _447  and  _450
REMARK  197  A    between atoms: _450  and  _451
REMARK  198  A    between atoms: _454  and  _456
REMARK  199  A    between atoms: _456  and  _457
REMARK  200  A    between atoms: _456  and  _459
REMARK  201  A    between atoms: _459  and  _460
REMARK  202  A    between atoms: _463  and  _465
REMARK  203  A    between atoms: _465  and  _466
REMARK  204  A    between atoms: _465  and  _468
REMARK  205  A    between atoms: _468  and  _469
REMARK  206  A    between atoms: _469  and  _470
REMARK  207  A    between atoms: _470  and  _471
REMARK  208  A    between atoms: _471  and  _472
REMARK  209  A    between atoms: _476  and  _478
REMARK  210  A    between atoms: _478  and  _479
REMARK  211  A    between atoms: _478  and  _481
REMARK  212  A    between atoms: _481  and  _482
REMARK  213  A    between atoms: _485  and  _487
REMARK  214  A    between atoms: _487  and  _488
REMARK  215  A    between atoms: _487  and  _490
REMARK  216  A    between atoms: _492  and  _494
REMARK  217  A    between atoms: _494  and  _495
REMARK  218  A    between atoms: _494  and  _497
REMARK  219  A    between atoms: _497  and  _498
REMARK  220  A    between atoms: _501  and  _503
REMARK  221  A    between atoms: _503  and  _504
REMARK  222  A    between atoms: _503  and  _506
REMARK  223  A    between atoms: _506  and  _507
REMARK  224  A    between atoms: _513  and  _515
REMARK  225  A    between atoms: _515  and  _516
REMARK  226  A    between atoms: _518  and  _520
REMARK  227  A    between atoms: _520  and  _521
REMARK  228  A    between atoms: _520  and  _523
REMARK  229  A    between atoms: _523  and  _524
REMARK  230  A    between atoms: _527  and  _529
REMARK  231  A    between atoms: _529  and  _530
REMARK  232  A    between atoms: _529  and  _532
REMARK  233  A    between atoms: _532  and  _533
REMARK                            x       y       z     vdW  Elec       q    Type
REMARK                         _______ _______ _______ _____ _____    ______ ____
ROOT
ATOM      1  O   HOH     1      16.909  -3.512  46.707  0.00  0.00    +0.000 OA
ENDROOT
TORSDOF 0
REMARK  Name = ../refined-set-2016/3i60/3i60_pocket.pdb
REMARK  233 active torsions:
REMARK  status: ('A' for Active; 'I' for Inactive)
REMARK    1  A    between atoms: _1  and  _3
REMARK    2  A    between atoms: _3  and  _4
REMARK    3  A    between atoms: _3  and  _6
REMARK    4  A    between atoms: _6  and  _7
REMARK    5  A    between atoms: _9  and  _11
REMARK    6  A    between atoms: _11  and  _12
REMARK    7  A    between atoms: _11  and  _14
REMARK    8  A    between atoms: _14  and  _15
REMARK    9  A    between atoms: _20  and  _21
REMARK   10  A    between atoms: _23  and  _25
REMARK   11  A    between atoms: _25  and  _26
REMARK   12  A    between atoms: _25  and  _28
REMARK   13  A    between atoms: _28  and  _29
REMARK   14  A    between atoms: _32  and  _34
REMARK   15  A    between atoms: _34  and  _35
REMARK   16  A    between atoms: _37  and  _39
REMARK   17  A    between atoms: _39  and  _40
REMARK   18  A    between atoms: _39  and  _42
REMARK   19  A    between atoms: _42  and  _43
REMARK   20  A    between atoms: _43  and  _44
REMARK   21  A    between atoms: _47  and  _49
REMARK   22  A    between atoms: _49  and  _50
REMARK   23  A    between atoms: _52  and  _54
REMARK   24  A    between atoms: _54  and  _55
REMARK   25  A    between atoms: _58  and  _60
REMARK   26  A    between atoms: _60  and  _61
REMARK   27  A    between atoms: _60  and  _63
REMARK   28  A    between atoms: _63  and  _64
REMARK   29  A    between atoms: _69  and  _70
REMARK   30  A    between atoms: _72  and  _74
REMARK   31  A    between atoms: _74  and  _75
REMARK   32  A    between atoms: _77  and  _79
REMARK   33  A    between atoms: _79  and  _80
REMARK   34  A    between atoms: _79  and  _82
REMARK   35  A    between atoms: _82  and  _83
REMARK   36  A    between atoms: _83  and  _84
REMARK   37  A    between atoms: _86  and  _88
REMARK   38  A    between atoms: _88  and  _89
REMARK   39  A    between atoms: _88  and  _91
REMARK   40  A    between atoms: _94  and  _96
REMARK   41  A    between atoms: _96  and  _97
REMARK   42  A    between atoms: _96  and  _99
REMARK   43  A    between atoms: _101  and  _103
REMARK   44  A    between atoms: _103  and  _104
REMARK   45  A    between atoms: _103  and  _106
REMARK   46  A    between atoms: _106  and  _107
REMARK   47  A    between atoms: _109  and  _111
REMARK   48  A    between atoms: _111  and  _112
REMARK   49  A    between atoms: _111  and  _114
REMARK   50  A    between atoms: _114  and  _115
REMARK   51  A    between atoms: _115  and  _116
REMARK   52  A    between atoms: _116  and  _117
REMARK   53  A    between atoms: _126  and  _128
REMARK   54  A    between atoms: _128  and  _129
REMARK   55  A    between atoms: _128  and  _131
REMARK   56  A    between atoms: _134  and  _136
REMARK   57  A    between atoms: _136  and  _137
REMARK   58  A    between atoms: _140  and  _142
REMARK   59  A    between atoms: _142  and  _143
REMARK   60  A    between atoms: _142  and  _145
REMARK   61  A    between atoms: _145  and  _146
REMARK   62  A    between atoms: _149  and  _151
REMARK   63  A    between atoms: _151  and  _152
REMARK   64  A    between atoms: _151  and  _154
REMARK   65  A    between atoms: _154  and  _155
REMARK   66  A    between atoms: _155  and  _156
REMARK   67  A    between atoms: _156  and  _157
REMARK   68  A    between atoms: _157  and  _158
REMARK   69  A    between atoms: _162  and  _164
REMARK   70  A    between atoms: _164  and  _165
REMARK   71  A    between atoms: _164  and  _167
REMARK   72  A    between atoms: _167  and  _168
REMARK   73  A    between atoms: _168  and  _169
REMARK   74  A    between atoms: _169  and  _170
REMARK   75  A    between atoms: _170  and  _171
REMARK   76  A    between atoms: _175  and  _177
REMARK   77  A    between atoms: _177  and  _178
REMARK   78  A    between atoms: _177  and  _180
REMARK   79  A    between atoms: _180  and  _181
REMARK   80  A    between atoms: _184  and  _186
REMARK   81  A    between atoms: _186  and  _187
REMARK   82  A    between atoms: _186  and  _189
REMARK   83  A    between atoms: _189  and  _190
REMARK   84  A    between atoms: _192  and  _194
REMARK   85  A    between atoms: _194  and  _195
REMARK   86  A    between atoms: _194  and  _197
REMARK   87  A    between atoms: _197  and  _198
REMARK   88  A    between atoms: _198  and  _199
REMARK   89  A    between atoms: _199  and  _200
REMARK   90  A    between atoms: _209  and  _211
REMARK   91  A    between atoms: _211  and  _212
REMARK   92  A    between atoms: _211  and  _214
REMARK   93  A    between atoms: _214  and  _215
REMARK   94  A    between atoms: _218  and  _220
REMARK   95  A    between atoms: _220  and  _221
REMARK   96  A    between atoms: _220  and  _223
REMARK   97  A    between atoms: _223  and  _224
REMARK   98  A    between atoms: _224  and  _225
REMARK   99  A    between atoms: _228  and  _230
REMARK  100  A    between atoms: _230  and  _231
REMARK  101  A    between atoms: _230  and  _233
REMARK  102  A    between atoms: _233  and  _234
REMARK  103  A    between atoms: _237  and  _239
REMARK  104  A    between atoms: _239  and  _240
REMARK  105  A    between atoms: _239  and  _242
REMARK  106  A    between atoms: _242  and  _243
REMARK  107  A    between atoms: _246  and  _248
REMARK  108  A    between atoms: _248  and  _249
REMARK  109  A    between atoms: _251  and  _253
REMARK  110  A    between atoms: _253  and  _254
REMARK  111  A    between atoms: _253  and  _256
REMARK  112  A    between atoms: _259  and  _261
REMARK  113  A    between atoms: _261  and  _262
REMARK  114  A    between atoms: _261  and  _264
REMARK  115  A    between atoms: _264  and  _265
REMARK  116  A    between atoms: _268  and  _270
REMARK  117  A    between atoms: _270  and  _271
REMARK  118  A    between atoms: _270  and  _273
REMARK  119  A    between atoms: _276  and  _278
REMARK  120  A    between atoms: _278  and  _279
REMARK  121  A    between atoms: _278  and  _281
REMARK  122  A    between atoms: _281  and  _282
REMARK  123  A    between atoms: _282  and  _283
REMARK  124  A    between atoms: _288  and  _290
REMARK  125  A    between atoms: _290  and  _291
REMARK  126  A    between atoms: _290  and  _293
REMARK  127  A    between atoms: _293  and  _294
REMARK  128  A    between atoms: _297  and  _299
REMARK  129  A    between atoms: _299  and  _300
REMARK  130  A    between atoms: _299  and  _302
REMARK  131  A    between atoms: _302  and  _303
REMARK  132  A    between atoms: _306  and  _308
REMARK  133  A    between atoms: _308  and  _309
REMARK  134  A    between atoms: _308  and  _311
REMARK  135  A    between atoms: _311  and  _312
REMARK  136  A    between atoms: _312  and  _313
REMARK  137  A    between atoms: _315  and  _317
REMARK  138  A    between atoms: _317  and  _318
REMARK  139  A    between atoms: _317  and  _320
REMARK  140  A    between atoms: _320  and  _321
REMARK  141  A    between atoms: _321  and  _322
REMARK  142  A    between atoms: _325  and  _327
REMARK  143  A    between atoms: _327  and  _328
REMARK  144  A    between atoms: _327  and  _330
REMARK  145  A    between atoms: _330  and  _331
REMARK  146  A    between atoms: _334  and  _336
REMARK  147  A    between atoms: _336  and  _337
REMARK  148  A    between atoms: _336  and  _339
REMARK  149  A    between atoms: _339  and  _340
REMARK  150  A    between atoms: _343  and  _345
REMARK  151  A    between atoms: _345  and  _346
REMARK  152  A    between atoms: _345  and  _348
REMARK  153  A    between atoms: _348  and  _349
REMARK  154  A    between atoms: _352  and  _354
REMARK  155  A    between atoms: _354  and  _355
REMARK  156  A    between atoms: _354  and  _357
REMARK  157  A    between atoms: _357  and  _358
REMARK  158  A    between atoms: _363  and  _364
REMARK  159  A    between atoms: _366  and  _368
REMARK  160  A    between atoms: _368  and  _369
REMARK  161  A    between atoms: _368  and  _371
REMARK  162  A    between atoms: _371  and  _372
REMARK  163  A    between atoms: _372  and  _373
REMARK  164  A    between atoms: _373  and  _374
REMARK  165  A    between atoms: _374  and  _375
REMARK  166  A    between atoms: _379  and  _381
REMARK  167  A    between atoms: _381  and  _382
REMARK  168  A    between atoms: _381  and  _384
REMARK  169  A    between atoms: _384  and  _385
REMARK  170  A    between atoms: _388  and  _390
REMARK  171  A    between atoms: _390  and  _391
REMARK  172  A    between atoms: _390  and  _393
REMARK  173  A    between atoms: _393  and  _394
REMARK  174  A    between atoms: _397  and  _399
REMARK  175  A    between atoms: _399  and  _400
REMARK  176  A    between atoms: _399  and  _402
REMARK  177  A    between atoms: _402  and  _403
REMARK  178  A    between atoms: _403  and  _404
REMARK  179  A    between atoms: _404  and  _405
REMARK  180  A    between atoms: _405  and  _406
REMARK  181  A    between atoms: _411  and  _412
REMARK  182  A    between atoms: _417  and  _419
REMARK  183  A    between atoms: _419  and  _420
REMARK  184  A    between atoms: _419  and  _422
REMARK  185  A    between atoms: _422  and  _423
REMARK  186  A    between atoms: _425  and  _427
REMARK  187  A    between atoms: _427  and  _428
REMARK  188  A    between atoms: _427  and  _430
REMARK  189  A    between atoms: _430  and  _431
REMARK  190  A    between atoms: _436  and  _438
REMARK  191  A    between atoms: _438  and  _439
REMARK  192  A    between atoms: _438  and  _441
REMARK  193  A    between atoms: _441  and  _442
REMARK  194  A    between atoms: _445  and  _447
REMARK  195  A    between atoms: _447  and  _448
REMARK  196  A    between atoms: _447  and  _450
REMARK  197  A    between atoms: _450  and  _451
REMARK  198  A    between atoms: _454  and  _456
REMARK  199  A    between atoms: _456  and  _457
REMARK  200  A    between atoms: _456  and  _459
REMARK  201  A    between atoms: _459  and  _460
REMARK  202  A    between atoms: _463  and  _465
REMARK  203  A    between atoms: _465  and  _466
REMARK  204  A    between atoms: _465  and  _468
REMARK  205  A    between atoms: _468  and  _469
REMARK  206  A    between atoms: _469  and  _470
REMARK  207  A    between atoms: _470  and  _471
REMARK  208  A    between atoms: _471  and  _472
REMARK  209  A    between atoms: _476  and  _478
REMARK  210  A    between atoms: _478  and  _479
REMARK  211  A    between atoms: _478  and  _481
REMARK  212  A    between atoms: _481  and  _482
REMARK  213  A    between atoms: _485  and  _487
REMARK  214  A    between atoms: _487  and  _488
REMARK  215  A    between atoms: _487  and  _490
REMARK  216  A    between atoms: _492  and  _494
REMARK  217  A    between atoms: _494  and  _495
REMARK  218  A    between atoms: _494  and  _497
REMARK  219  A    between atoms: _497  and  _498
REMARK  220  A    between atoms: _501  and  _503
REMARK  221  A    between atoms: _503  and  _504
REMARK  222  A    between atoms: _503  and  _506
REMARK  223  A    between atoms: _506  and  _507
REMARK  224  A    between atoms: _513  and  _515
REMARK  225  A    between atoms: _515  and  _516
REMARK  226  A    between atoms: _518  and  _520
REMARK  227  A    between atoms: _520  and  _521
REMARK  228  A    between atoms: _520  and  _523
REMARK  229  A    between atoms: _523  and  _524
REMARK  230  A    between atoms: _527  and  _529
REMARK  231  A    between atoms: _529  and  _530
REMARK  232  A    between atoms: _529  and  _532
REMARK  233  A    between atoms: _532  and  _533
REMARK                            x       y       z     vdW  Elec       q    Type
REMARK                         _______ _______ _______ _____ _____    ______ ____
ROOT
ATOM      1  O   HOH     1       6.504 -10.594  38.969  0.00  0.00    +0.000 OA
ENDROOT
TORSDOF 0
REMARK  Name = ../refined-set-2016/3i60/3i60_pocket.pdb
REMARK  233 active torsions:
REMARK  status: ('A' for Active; 'I' for Inactive)
REMARK    1  A    between atoms: _1  and  _3
REMARK    2  A    between atoms: _3  and  _4
REMARK    3  A    between atoms: _3  and  _6
REMARK    4  A    between atoms: _6  and  _7
REMARK    5  A    between atoms: _9  and  _11
REMARK    6  A    between atoms: _11  and  _12
REMARK    7  A    between atoms: _11  and  _14
REMARK    8  A    between atoms: _14  and  _15
REMARK    9  A    between atoms: _20  and  _21
REMARK   10  A    between atoms: _23  and  _25
REMARK   11  A    between atoms: _25  and  _26
REMARK   12  A    between atoms: _25  and  _28
REMARK   13  A    between atoms: _28  and  _29
REMARK   14  A    between atoms: _32  and  _34
REMARK   15  A    between atoms: _34  and  _35
REMARK   16  A    between atoms: _37  and  _39
REMARK   17  A    between atoms: _39  and  _40
REMARK   18  A    between atoms: _39  and  _42
REMARK   19  A    between atoms: _42  and  _43
REMARK   20  A    between atoms: _43  and  _44
REMARK   21  A    between atoms: _47  and  _49
REMARK   22  A    between atoms: _49  and  _50
REMARK   23  A    between atoms: _52  and  _54
REMARK   24  A    between atoms: _54  and  _55
REMARK   25  A    between atoms: _58  and  _60
REMARK   26  A    between atoms: _60  and  _61
REMARK   27  A    between atoms: _60  and  _63
REMARK   28  A    between atoms: _63  and  _64
REMARK   29  A    between atoms: _69  and  _70
REMARK   30  A    between atoms: _72  and  _74
REMARK   31  A    between atoms: _74  and  _75
REMARK   32  A    between atoms: _77  and  _79
REMARK   33  A    between atoms: _79  and  _80
REMARK   34  A    between atoms: _79  and  _82
REMARK   35  A    between atoms: _82  and  _83
REMARK   36  A    between atoms: _83  and  _84
REMARK   37  A    between atoms: _86  and  _88
REMARK   38  A    between atoms: _88  and  _89
REMARK   39  A    between atoms: _88  and  _91
REMARK   40  A    between atoms: _94  and  _96
REMARK   41  A    between atoms: _96  and  _97
REMARK   42  A    between atoms: _96  and  _99
REMARK   43  A    between atoms: _101  and  _103
REMARK   44  A    between atoms: _103  and  _104
REMARK   45  A    between atoms: _103  and  _106
REMARK   46  A    between atoms: _106  and  _107
REMARK   47  A    between atoms: _109  and  _111
REMARK   48  A    between atoms: _111  and  _112
REMARK   49  A    between atoms: _111  and  _114
REMARK   50  A    between atoms: _114  and  _115
REMARK   51  A    between atoms: _115  and  _116
REMARK   52  A    between atoms: _116  and  _117
REMARK   53  A    between atoms: _126  and  _128
REMARK   54  A    between atoms: _128  and  _129
REMARK   55  A    between atoms: _128  and  _131
REMARK   56  A    between atoms: _134  and  _136
REMARK   57  A    between atoms: _136  and  _137
REMARK   58  A    between atoms: _140  and  _142
REMARK   59  A    between atoms: _142  and  _143
REMARK   60  A    between atoms: _142  and  _145
REMARK   61  A    between atoms: _145  and  _146
REMARK   62  A    between atoms: _149  and  _151
REMARK   63  A    between atoms: _151  and  _152
REMARK   64  A    between atoms: _151  and  _154
REMARK   65  A    between atoms: _154  and  _155
REMARK   66  A    between atoms: _155  and  _156
REMARK   67  A    between atoms: _156  and  _157
REMARK   68  A    between atoms: _157  and  _158
REMARK   69  A    between atoms: _162  and  _164
REMARK   70  A    between atoms: _164  and  _165
REMARK   71  A    between atoms: _164  and  _167
REMARK   72  A    between atoms: _167  and  _168
REMARK   73  A    between atoms: _168  and  _169
REMARK   74  A    between atoms: _169  and  _170
REMARK   75  A    between atoms: _170  and  _171
REMARK   76  A    between atoms: _175  and  _177
REMARK   77  A    between atoms: _177  and  _178
REMARK   78  A    between atoms: _177  and  _180
REMARK   79  A    between atoms: _180  and  _181
REMARK   80  A    between atoms: _184  and  _186
REMARK   81  A    between atoms: _186  and  _187
REMARK   82  A    between atoms: _186  and  _189
REMARK   83  A    between atoms: _189  and  _190
REMARK   84  A    between atoms: _192  and  _194
REMARK   85  A    between atoms: _194  and  _195
REMARK   86  A    between atoms: _194  and  _197
REMARK   87  A    between atoms: _197  and  _198
REMARK   88  A    between atoms: _198  and  _199
REMARK   89  A    between atoms: _199  and  _200
REMARK   90  A    between atoms: _209  and  _211
REMARK   91  A    between atoms: _211  and  _212
REMARK   92  A    between atoms: _211  and  _214
REMARK   93  A    between atoms: _214  and  _215
REMARK   94  A    between atoms: _218  and  _220
REMARK   95  A    between atoms: _220  and  _221
REMARK   96  A    between atoms: _220  and  _223
REMARK   97  A    between atoms: _223  and  _224
REMARK   98  A    between atoms: _224  and  _225
REMARK   99  A    between atoms: _228  and  _230
REMARK  100  A    between atoms: _230  and  _231
REMARK  101  A    between atoms: _230  and  _233
REMARK  102  A    between atoms: _233  and  _234
REMARK  103  A    between atoms: _237  and  _239
REMARK  104  A    between atoms: _239  and  _240
REMARK  105  A    between atoms: _239  and  _242
REMARK  106  A    between atoms: _242  and  _243
REMARK  107  A    between atoms: _246  and  _248
REMARK  108  A    between atoms: _248  and  _249
REMARK  109  A    between atoms: _251  and  _253
REMARK  110  A    between atoms: _253  and  _254
REMARK  111  A    between atoms: _253  and  _256
REMARK  112  A    between atoms: _259  and  _261
REMARK  113  A    between atoms: _261  and  _262
REMARK  114  A    between atoms: _261  and  _264
REMARK  115  A    between atoms: _264  and  _265
REMARK  116  A    between atoms: _268  and  _270
REMARK  117  A    between atoms: _270  and  _271
REMARK  118  A    between atoms: _270  and  _273
REMARK  119  A    between atoms: _276  and  _278
REMARK  120  A    between atoms: _278  and  _279
REMARK  121  A    between atoms: _278  and  _281
REMARK  122  A    between atoms: _281  and  _282
REMARK  123  A    between atoms: _282  and  _283
REMARK  124  A    between atoms: _288  and  _290
REMARK  125  A    between atoms: _290  and  _291
REMARK  126  A    between atoms: _290  and  _293
REMARK  127  A    between atoms: _293  and  _294
REMARK  128  A    between atoms: _297  and  _299
REMARK  129  A    between atoms: _299  and  _300
REMARK  130  A    between atoms: _299  and  _302
REMARK  131  A    between atoms: _302  and  _303
REMARK  132  A    between atoms: _306  and  _308
REMARK  133  A    between atoms: _308  and  _309
REMARK  134  A    between atoms: _308  and  _311
REMARK  135  A    between atoms: _311  and  _312
REMARK  136  A    between atoms: _312  and  _313
REMARK  137  A    between atoms: _315  and  _317
REMARK  138  A    between atoms: _317  and  _318
REMARK  139  A    between atoms: _317  and  _320
REMARK  140  A    between atoms: _320  and  _321
REMARK  141  A    between atoms: _321  and  _322
REMARK  142  A    between atoms: _325  and  _327
REMARK  143  A    between atoms: _327  and  _328
REMARK  144  A    between atoms: _327  and  _330
REMARK  145  A    between atoms: _330  and  _331
REMARK  146  A    between atoms: _334  and  _336
REMARK  147  A    between atoms: _336  and  _337
REMARK  148  A    between atoms: _336  and  _339
REMARK  149  A    between atoms: _339  and  _340
REMARK  150  A    between atoms: _343  and  _345
REMARK  151  A    between atoms: _345  and  _346
REMARK  152  A    between atoms: _345  and  _348
REMARK  153  A    between atoms: _348  and  _349
REMARK  154  A    between atoms: _352  and  _354
REMARK  155  A    between atoms: _354  and  _355
REMARK  156  A    between atoms: _354  and  _357
REMARK  157  A    between atoms: _357  and  _358
REMARK  158  A    between atoms: _363  and  _364
REMARK  159  A    between atoms: _366  and  _368
REMARK  160  A    between atoms: _368  and  _369
REMARK  161  A    between atoms: _368  and  _371
REMARK  162  A    between atoms: _371  and  _372
REMARK  163  A    between atoms: _372  and  _373
REMARK  164  A    between atoms: _373  and  _374
REMARK  165  A    between atoms: _374  and  _375
REMARK  166  A    between atoms: _379  and  _381
REMARK  167  A    between atoms: _381  and  _382
REMARK  168  A    between atoms: _381  and  _384
REMARK  169  A    between atoms: _384  and  _385
REMARK  170  A    between atoms: _388  and  _390
REMARK  171  A    between atoms: _390  and  _391
REMARK  172  A    between atoms: _390  and  _393
REMARK  173  A    between atoms: _393  and  _394
REMARK  174  A    between atoms: _397  and  _399
REMARK  175  A    between atoms: _399  and  _400
REMARK  176  A    between atoms: _399  and  _402
REMARK  177  A    between atoms: _402  and  _403
REMARK  178  A    between atoms: _403  and  _404
REMARK  179  A    between atoms: _404  and  _405
REMARK  180  A    between atoms: _405  and  _406
REMARK  181  A    between atoms: _411  and  _412
REMARK  182  A    between atoms: _417  and  _419
REMARK  183  A    between atoms: _419  and  _420
REMARK  184  A    between atoms: _419  and  _422
REMARK  185  A    between atoms: _422  and  _423
REMARK  186  A    between atoms: _425  and  _427
REMARK  187  A    between atoms: _427  and  _428
REMARK  188  A    between atoms: _427  and  _430
REMARK  189  A    between atoms: _430  and  _431
REMARK  190  A    between atoms: _436  and  _438
REMARK  191  A    between atoms: _438  and  _439
REMARK  192  A    between atoms: _438  and  _441
REMARK  193  A    between atoms: _441  and  _442
REMARK  194  A    between atoms: _445  and  _447
REMARK  195  A    between atoms: _447  and  _448
REMARK  196  A    between atoms: _447  and  _450
REMARK  197  A    between atoms: _450  and  _451
REMARK  198  A    between atoms: _454  and  _456
REMARK  199  A    between atoms: _456  and  _457
REMARK  200  A    between atoms: _456  and  _459
REMARK  201  A    between atoms: _459  and  _460
REMARK  202  A    between atoms: _463  and  _465
REMARK  203  A    between atoms: _465  and  _466
REMARK  204  A    between atoms: _465  and  _468
REMARK  205  A    between atoms: _468  and  _469
REMARK  206  A    between atoms: _469  and  _470
REMARK  207  A    between atoms: _470  and  _471
REMARK  208  A    between atoms: _471  and  _472
REMARK  209  A    between atoms: _476  and  _478
REMARK  210  A    between atoms: _478  and  _479
REMARK  211  A    between atoms: _478  and  _481
REMARK  212  A    between atoms: _481  and  _482
REMARK  213  A    between atoms: _485  and  _487
REMARK  214  A    between atoms: _487  and  _488
REMARK  215  A    between atoms: _487  and  _490
REMARK  216  A    between atoms: _492  and  _494
REMARK  217  A    between atoms: _494  and  _495
REMARK  218  A    between atoms: _494  and  _497
REMARK  219  A    between atoms: _497  and  _498
REMARK  220  A    between atoms: _501  and  _503
REMARK  221  A    between atoms: _503  and  _504
REMARK  222  A    between atoms: _503  and  _506
REMARK  223  A    between atoms: _506  and  _507
REMARK  224  A    between atoms: _513  and  _515
REMARK  225  A    between atoms: _515  and  _516
REMARK  226  A    between atoms: _518  and  _520
REMARK  227  A    between atoms: _520  and  _521
REMARK  228  A    between atoms: _520  and  _523
REMARK  229  A    between atoms: _523  and  _524
REMARK  230  A    between atoms: _527  and  _529
REMARK  231  A    between atoms: _529  and  _530
REMARK  232  A    between atoms: _529  and  _532
REMARK  233  A    between atoms: _532  and  _533
REMARK                            x       y       z     vdW  Elec       q    Type
REMARK                         _______ _______ _______ _____ _____    ______ ____
ROOT
ATOM      1  O   HOH     1      -3.878  -5.639  48.032  0.00  0.00    +0.000 OA
ENDROOT
TORSDOF 0
REMARK  Name = ../refined-set-2016/3i60/3i60_pocket.pdb
REMARK  233 active torsions:
REMARK  status: ('A' for Active; 'I' for Inactive)
REMARK    1  A    between atoms: _1  and  _3
REMARK    2  A    between atoms: _3  and  _4
REMARK    3  A    between atoms: _3  and  _6
REMARK    4  A    between atoms: _6  and  _7
REMARK    5  A    between atoms: _9  and  _11
REMARK    6  A    between atoms: _11  and  _12
REMARK    7  A    between atoms: _11  and  _14
REMARK    8  A    between atoms: _14  and  _15
REMARK    9  A    between atoms: _20  and  _21
REMARK   10  A    between atoms: _23  and  _25
REMARK   11  A    between atoms: _25  and  _26
REMARK   12  A    between atoms: _25  and  _28
REMARK   13  A    between atoms: _28  and  _29
REMARK   14  A    between atoms: _32  and  _34
REMARK   15  A    between atoms: _34  and  _35
REMARK   16  A    between atoms: _37  and  _39
REMARK   17  A    between atoms: _39  and  _40
REMARK   18  A    between atoms: _39  and  _42
REMARK   19  A    between atoms: _42  and  _43
REMARK   20  A    between atoms: _43  and  _44
REMARK   21  A    between atoms: _47  and  _49
REMARK   22  A    between atoms: _49  and  _50
REMARK   23  A    between atoms: _52  and  _54
REMARK   24  A    between atoms: _54  and  _55
REMARK   25  A    between atoms: _58  and  _60
REMARK   26  A    between atoms: _60  and  _61
REMARK   27  A    between atoms: _60  and  _63
REMARK   28  A    between atoms: _63  and  _64
REMARK   29  A    between atoms: _69  and  _70
REMARK   30  A    between atoms: _72  and  _74
REMARK   31  A    between atoms: _74  and  _75
REMARK   32  A    between atoms: _77  and  _79
REMARK   33  A    between atoms: _79  and  _80
REMARK   34  A    between atoms: _79  and  _82
REMARK   35  A    between atoms: _82  and  _83
REMARK   36  A    between atoms: _83  and  _84
REMARK   37  A    between atoms: _86  and  _88
REMARK   38  A    between atoms: _88  and  _89
REMARK   39  A    between atoms: _88  and  _91
REMARK   40  A    between atoms: _94  and  _96
REMARK   41  A    between atoms: _96  and  _97
REMARK   42  A    between atoms: _96  and  _99
REMARK   43  A    between atoms: _101  and  _103
REMARK   44  A    between atoms: _103  and  _104
REMARK   45  A    between atoms: _103  and  _106
REMARK   46  A    between atoms: _106  and  _107
REMARK   47  A    between atoms: _109  and  _111
REMARK   48  A    between atoms: _111  and  _112
REMARK   49  A    between atoms: _111  and  _114
REMARK   50  A    between atoms: _114  and  _115
REMARK   51  A    between atoms: _115  and  _116
REMARK   52  A    between atoms: _116  and  _117
REMARK   53  A    between atoms: _126  and  _128
REMARK   54  A    between atoms: _128  and  _129
REMARK   55  A    between atoms: _128  and  _131
REMARK   56  A    between atoms: _134  and  _136
REMARK   57  A    between atoms: _136  and  _137
REMARK   58  A    between atoms: _140  and  _142
REMARK   59  A    between atoms: _142  and  _143
REMARK   60  A    between atoms: _142  and  _145
REMARK   61  A    between atoms: _145  and  _146
REMARK   62  A    between atoms: _149  and  _151
REMARK   63  A    between atoms: _151  and  _152
REMARK   64  A    between atoms: _151  and  _154
REMARK   65  A    between atoms: _154  and  _155
REMARK   66  A    between atoms: _155  and  _156
REMARK   67  A    between atoms: _156  and  _157
REMARK   68  A    between atoms: _157  and  _158
REMARK   69  A    between atoms: _162  and  _164
REMARK   70  A    between atoms: _164  and  _165
REMARK   71  A    between atoms: _164  and  _167
REMARK   72  A    between atoms: _167  and  _168
REMARK   73  A    between atoms: _168  and  _169
REMARK   74  A    between atoms: _169  and  _170
REMARK   75  A    between atoms: _170  and  _171
REMARK   76  A    between atoms: _175  and  _177
REMARK   77  A    between atoms: _177  and  _178
REMARK   78  A    between atoms: _177  and  _180
REMARK   79  A    between atoms: _180  and  _181
REMARK   80  A    between atoms: _184  and  _186
REMARK   81  A    between atoms: _186  and  _187
REMARK   82  A    between atoms: _186  and  _189
REMARK   83  A    between atoms: _189  and  _190
REMARK   84  A    between atoms: _192  and  _194
REMARK   85  A    between atoms: _194  and  _195
REMARK   86  A    between atoms: _194  and  _197
REMARK   87  A    between atoms: _197  and  _198
REMARK   88  A    between atoms: _198  and  _199
REMARK   89  A    between atoms: _199  and  _200
REMARK   90  A    between atoms: _209  and  _211
REMARK   91  A    between atoms: _211  and  _212
REMARK   92  A    between atoms: _211  and  _214
REMARK   93  A    between atoms: _214  and  _215
REMARK   94  A    between atoms: _218  and  _220
REMARK   95  A    between atoms: _220  and  _221
REMARK   96  A    between atoms: _220  and  _223
REMARK   97  A    between atoms: _223  and  _224
REMARK   98  A    between atoms: _224  and  _225
REMARK   99  A    between atoms: _228  and  _230
REMARK  100  A    between atoms: _230  and  _231
REMARK  101  A    between atoms: _230  and  _233
REMARK  102  A    between atoms: _233  and  _234
REMARK  103  A    between atoms: _237  and  _239
REMARK  104  A    between atoms: _239  and  _240
REMARK  105  A    between atoms: _239  and  _242
REMARK  106  A    between atoms: _242  and  _243
REMARK  107  A    between atoms: _246  and  _248
REMARK  108  A    between atoms: _248  and  _249
REMARK  109  A    between atoms: _251  and  _253
REMARK  110  A    between atoms: _253  and  _254
REMARK  111  A    between atoms: _253  and  _256
REMARK  112  A    between atoms: _259  and  _261
REMARK  113  A    between atoms: _261  and  _262
REMARK  114  A    between atoms: _261  and  _264
REMARK  115  A    between atoms: _264  and  _265
REMARK  116  A    between atoms: _268  and  _270
REMARK  117  A    between atoms: _270  and  _271
REMARK  118  A    between atoms: _270  and  _273
REMARK  119  A    between atoms: _276  and  _278
REMARK  120  A    between atoms: _278  and  _279
REMARK  121  A    between atoms: _278  and  _281
REMARK  122  A    between atoms: _281  and  _282
REMARK  123  A    between atoms: _282  and  _283
REMARK  124  A    between atoms: _288  and  _290
REMARK  125  A    between atoms: _290  and  _291
REMARK  126  A    between atoms: _290  and  _293
REMARK  127  A    between atoms: _293  and  _294
REMARK  128  A    between atoms: _297  and  _299
REMARK  129  A    between atoms: _299  and  _300
REMARK  130  A    between atoms: _299  and  _302
REMARK  131  A    between atoms: _302  and  _303
REMARK  132  A    between atoms: _306  and  _308
REMARK  133  A    between atoms: _308  and  _309
REMARK  134  A    between atoms: _308  and  _311
REMARK  135  A    between atoms: _311  and  _312
REMARK  136  A    between atoms: _312  and  _313
REMARK  137  A    between atoms: _315  and  _317
REMARK  138  A    between atoms: _317  and  _318
REMARK  139  A    between atoms: _317  and  _320
REMARK  140  A    between atoms: _320  and  _321
REMARK  141  A    between atoms: _321  and  _322
REMARK  142  A    between atoms: _325  and  _327
REMARK  143  A    between atoms: _327  and  _328
REMARK  144  A    between atoms: _327  and  _330
REMARK  145  A    between atoms: _330  and  _331
REMARK  146  A    between atoms: _334  and  _336
REMARK  147  A    between atoms: _336  and  _337
REMARK  148  A    between atoms: _336  and  _339
REMARK  149  A    between atoms: _339  and  _340
REMARK  150  A    between atoms: _343  and  _345
REMARK  151  A    between atoms: _345  and  _346
REMARK  152  A    between atoms: _345  and  _348
REMARK  153  A    between atoms: _348  and  _349
REMARK  154  A    between atoms: _352  and  _354
REMARK  155  A    between atoms: _354  and  _355
REMARK  156  A    between atoms: _354  and  _357
REMARK  157  A    between atoms: _357  and  _358
REMARK  158  A    between atoms: _363  and  _364
REMARK  159  A    between atoms: _366  and  _368
REMARK  160  A    between atoms: _368  and  _369
REMARK  161  A    between atoms: _368  and  _371
REMARK  162  A    between atoms: _371  and  _372
REMARK  163  A    between atoms: _372  and  _373
REMARK  164  A    between atoms: _373  and  _374
REMARK  165  A    between atoms: _374  and  _375
REMARK  166  A    between atoms: _379  and  _381
REMARK  167  A    between atoms: _381  and  _382
REMARK  168  A    between atoms: _381  and  _384
REMARK  169  A    between atoms: _384  and  _385
REMARK  170  A    between atoms: _388  and  _390
REMARK  171  A    between atoms: _390  and  _391
REMARK  172  A    between atoms: _390  and  _393
REMARK  173  A    between atoms: _393  and  _394
REMARK  174  A    between atoms: _397  and  _399
REMARK  175  A    between atoms: _399  and  _400
REMARK  176  A    between atoms: _399  and  _402
REMARK  177  A    between atoms: _402  and  _403
REMARK  178  A    between atoms: _403  and  _404
REMARK  179  A    between atoms: _404  and  _405
REMARK  180  A    between atoms: _405  and  _406
REMARK  181  A    between atoms: _411  and  _412
REMARK  182  A    between atoms: _417  and  _419
REMARK  183  A    between atoms: _419  and  _420
REMARK  184  A    between atoms: _419  and  _422
REMARK  185  A    between atoms: _422  and  _423
REMARK  186  A    between atoms: _425  and  _427
REMARK  187  A    between atoms: _427  and  _428
REMARK  188  A    between atoms: _427  and  _430
REMARK  189  A    between atoms: _430  and  _431
REMARK  190  A    between atoms: _436  and  _438
REMARK  191  A    between atoms: _438  and  _439
REMARK  192  A    between atoms: _438  and  _441
REMARK  193  A    between atoms: _441  and  _442
REMARK  194  A    between atoms: _445  and  _447
REMARK  195  A    between atoms: _447  and  _448
REMARK  196  A    between atoms: _447  and  _450
REMARK  197  A    between atoms: _450  and  _451
REMARK  198  A    between atoms: _454  and  _456
REMARK  199  A    between atoms: _456  and  _457
REMARK  200  A    between atoms: _456  and  _459
REMARK  201  A    between atoms: _459  and  _460
REMARK  202  A    between atoms: _463  and  _465
REMARK  203  A    between atoms: _465  and  _466
REMARK  204  A    between atoms: _465  and  _468
REMARK  205  A    between atoms: _468  and  _469
REMARK  206  A    between atoms: _469  and  _470
REMARK  207  A    between atoms: _470  and  _471
REMARK  208  A    between atoms: _471  and  _472
REMARK  209  A    between atoms: _476  and  _478
REMARK  210  A    between atoms: _478  and  _479
REMARK  211  A    between atoms: _478  and  _481
REMARK  212  A    between atoms: _481  and  _482
REMARK  213  A    between atoms: _485  and  _487
REMARK  214  A    between atoms: _487  and  _488
REMARK  215  A    between atoms: _487  and  _490
REMARK  216  A    between atoms: _492  and  _494
REMARK  217  A    between atoms: _494  and  _495
REMARK  218  A    between atoms: _494  and  _497
REMARK  219  A    between atoms: _497  and  _498
REMARK  220  A    between atoms: _501  and  _503
REMARK  221  A    between atoms: _503  and  _504
REMARK  222  A    between atoms: _503  and  _506
REMARK  223  A    between atoms: _506  and  _507
REMARK  224  A    between atoms: _513  and  _515
REMARK  225  A    between atoms: _515  and  _516
REMARK  226  A    between atoms: _518  and  _520
REMARK  227  A    between atoms: _520  and  _521
REMARK  228  A    between atoms: _520  and  _523
REMARK  229  A    between atoms: _523  and  _524
REMARK  230  A    between atoms: _527  and  _529
REMARK  231  A    between atoms: _529  and  _530
REMARK  232  A    between atoms: _529  and  _532
REMARK  233  A    between atoms: _532  and  _533
REMARK                            x       y       z     vdW  Elec       q    Type
REMARK                         _______ _______ _______ _____ _____    ______ ____
ROOT
ATOM      1  O   HOH     1      14.220 -14.329  51.281  0.00  0.00    +0.000 OA
ENDROOT
TORSDOF 0
REMARK  Name = ../refined-set-2016/3i60/3i60_pocket.pdb
REMARK  233 active torsions:
REMARK  status: ('A' for Active; 'I' for Inactive)
REMARK    1  A    between atoms: _1  and  _3
REMARK    2  A    between atoms: _3  and  _4
REMARK    3  A    between atoms: _3  and  _6
REMARK    4  A    between atoms: _6  and  _7
REMARK    5  A    between atoms: _9  and  _11
REMARK    6  A    between atoms: _11  and  _12
REMARK    7  A    between atoms: _11  and  _14
REMARK    8  A    between atoms: _14  and  _15
REMARK    9  A    between atoms: _20  and  _21
REMARK   10  A    between atoms: _23  and  _25
REMARK   11  A    between atoms: _25  and  _26
REMARK   12  A    between atoms: _25  and  _28
REMARK   13  A    between atoms: _28  and  _29
REMARK   14  A    between atoms: _32  and  _34
REMARK   15  A    between atoms: _34  and  _35
REMARK   16  A    between atoms: _37  and  _39
REMARK   17  A    between atoms: _39  and  _40
REMARK   18  A    between atoms: _39  and  _42
REMARK   19  A    between atoms: _42  and  _43
REMARK   20  A    between atoms: _43  and  _44
REMARK   21  A    between atoms: _47  and  _49
REMARK   22  A    between atoms: _49  and  _50
REMARK   23  A    between atoms: _52  and  _54
REMARK   24  A    between atoms: _54  and  _55
REMARK   25  A    between atoms: _58  and  _60
REMARK   26  A    between atoms: _60  and  _61
REMARK   27  A    between atoms: _60  and  _63
REMARK   28  A    between atoms: _63  and  _64
REMARK   29  A    between atoms: _69  and  _70
REMARK   30  A    between atoms: _72  and  _74
REMARK   31  A    between atoms: _74  and  _75
REMARK   32  A    between atoms: _77  and  _79
REMARK   33  A    between atoms: _79  and  _80
REMARK   34  A    between atoms: _79  and  _82
REMARK   35  A    between atoms: _82  and  _83
REMARK   36  A    between atoms: _83  and  _84
REMARK   37  A    between atoms: _86  and  _88
REMARK   38  A    between atoms: _88  and  _89
REMARK   39  A    between atoms: _88  and  _91
REMARK   40  A    between atoms: _94  and  _96
REMARK   41  A    between atoms: _96  and  _97
REMARK   42  A    between atoms: _96  and  _99
REMARK   43  A    between atoms: _101  and  _103
REMARK   44  A    between atoms: _103  and  _104
REMARK   45  A    between atoms: _103  and  _106
REMARK   46  A    between atoms: _106  and  _107
REMARK   47  A    between atoms: _109  and  _111
REMARK   48  A    between atoms: _111  and  _112
REMARK   49  A    between atoms: _111  and  _114
REMARK   50  A    between atoms: _114  and  _115
REMARK   51  A    between atoms: _115  and  _116
REMARK   52  A    between atoms: _116  and  _117
REMARK   53  A    between atoms: _126  and  _128
REMARK   54  A    between atoms: _128  and  _129
REMARK   55  A    between atoms: _128  and  _131
REMARK   56  A    between atoms: _134  and  _136
REMARK   57  A    between atoms: _136  and  _137
REMARK   58  A    between atoms: _140  and  _142
REMARK   59  A    between atoms: _142  and  _143
REMARK   60  A    between atoms: _142  and  _145
REMARK   61  A    between atoms: _145  and  _146
REMARK   62  A    between atoms: _149  and  _151
REMARK   63  A    between atoms: _151  and  _152
REMARK   64  A    between atoms: _151  and  _154
REMARK   65  A    between atoms: _154  and  _155
REMARK   66  A    between atoms: _155  and  _156
REMARK   67  A    between atoms: _156  and  _157
REMARK   68  A    between atoms: _157  and  _158
REMARK   69  A    between atoms: _162  and  _164
REMARK   70  A    between atoms: _164  and  _165
REMARK   71  A    between atoms: _164  and  _167
REMARK   72  A    between atoms: _167  and  _168
REMARK   73  A    between atoms: _168  and  _169
REMARK   74  A    between atoms: _169  and  _170
REMARK   75  A    between atoms: _170  and  _171
REMARK   76  A    between atoms: _175  and  _177
REMARK   77  A    between atoms: _177  and  _178
REMARK   78  A    between atoms: _177  and  _180
REMARK   79  A    between atoms: _180  and  _181
REMARK   80  A    between atoms: _184  and  _186
REMARK   81  A    between atoms: _186  and  _187
REMARK   82  A    between atoms: _186  and  _189
REMARK   83  A    between atoms: _189  and  _190
REMARK   84  A    between atoms: _192  and  _194
REMARK   85  A    between atoms: _194  and  _195
REMARK   86  A    between atoms: _194  and  _197
REMARK   87  A    between atoms: _197  and  _198
REMARK   88  A    between atoms: _198  and  _199
REMARK   89  A    between atoms: _199  and  _200
REMARK   90  A    between atoms: _209  and  _211
REMARK   91  A    between atoms: _211  and  _212
REMARK   92  A    between atoms: _211  and  _214
REMARK   93  A    between atoms: _214  and  _215
REMARK   94  A    between atoms: _218  and  _220
REMARK   95  A    between atoms: _220  and  _221
REMARK   96  A    between atoms: _220  and  _223
REMARK   97  A    between atoms: _223  and  _224
REMARK   98  A    between atoms: _224  and  _225
REMARK   99  A    between atoms: _228  and  _230
REMARK  100  A    between atoms: _230  and  _231
REMARK  101  A    between atoms: _230  and  _233
REMARK  102  A    between atoms: _233  and  _234
REMARK  103  A    between atoms: _237  and  _239
REMARK  104  A    between atoms: _239  and  _240
REMARK  105  A    between atoms: _239  and  _242
REMARK  106  A    between atoms: _242  and  _243
REMARK  107  A    between atoms: _246  and  _248
REMARK  108  A    between atoms: _248  and  _249
REMARK  109  A    between atoms: _251  and  _253
REMARK  110  A    between atoms: _253  and  _254
REMARK  111  A    between atoms: _253  and  _256
REMARK  112  A    between atoms: _259  and  _261
REMARK  113  A    between atoms: _261  and  _262
REMARK  114  A    between atoms: _261  and  _264
REMARK  115  A    between atoms: _264  and  _265
REMARK  116  A    between atoms: _268  and  _270
REMARK  117  A    between atoms: _270  and  _271
REMARK  118  A    between atoms: _270  and  _273
REMARK  119  A    between atoms: _276  and  _278
REMARK  120  A    between atoms: _278  and  _279
REMARK  121  A    between atoms: _278  and  _281
REMARK  122  A    between atoms: _281  and  _282
REMARK  123  A    between atoms: _282  and  _283
REMARK  124  A    between atoms: _288  and  _290
REMARK  125  A    between atoms: _290  and  _291
REMARK  126  A    between atoms: _290  and  _293
REMARK  127  A    between atoms: _293  and  _294
REMARK  128  A    between atoms: _297  and  _299
REMARK  129  A    between atoms: _299  and  _300
REMARK  130  A    between atoms: _299  and  _302
REMARK  131  A    between atoms: _302  and  _303
REMARK  132  A    between atoms: _306  and  _308
REMARK  133  A    between atoms: _308  and  _309
REMARK  134  A    between atoms: _308  and  _311
REMARK  135  A    between atoms: _311  and  _312
REMARK  136  A    between atoms: _312  and  _313
REMARK  137  A    between atoms: _315  and  _317
REMARK  138  A    between atoms: _317  and  _318
REMARK  139  A    between atoms: _317  and  _320
REMARK  140  A    between atoms: _320  and  _321
REMARK  141  A    between atoms: _321  and  _322
REMARK  142  A    between atoms: _325  and  _327
REMARK  143  A    between atoms: _327  and  _328
REMARK  144  A    between atoms: _327  and  _330
REMARK  145  A    between atoms: _330  and  _331
REMARK  146  A    between atoms: _334  and  _336
REMARK  147  A    between atoms: _336  and  _337
REMARK  148  A    between atoms: _336  and  _339
REMARK  149  A    between atoms: _339  and  _340
REMARK  150  A    between atoms: _343  and  _345
REMARK  151  A    between atoms: _345  and  _346
REMARK  152  A    between atoms: _345  and  _348
REMARK  153  A    between atoms: _348  and  _349
REMARK  154  A    between atoms: _352  and  _354
REMARK  155  A    between atoms: _354  and  _355
REMARK  156  A    between atoms: _354  and  _357
REMARK  157  A    between atoms: _357  and  _358
REMARK  158  A    between atoms: _363  and  _364
REMARK  159  A    between atoms: _366  and  _368
REMARK  160  A    between atoms: _368  and  _369
REMARK  161  A    between atoms: _368  and  _371
REMARK  162  A    between atoms: _371  and  _372
REMARK  163  A    between atoms: _372  and  _373
REMARK  164  A    between atoms: _373  and  _374
REMARK  165  A    between atoms: _374  and  _375
REMARK  166  A    between atoms: _379  and  _381
REMARK  167  A    between atoms: _381  and  _382
REMARK  168  A    between atoms: _381  and  _384
REMARK  169  A    between atoms: _384  and  _385
REMARK  170  A    between atoms: _388  and  _390
REMARK  171  A    between atoms: _390  and  _391
REMARK  172  A    between atoms: _390  and  _393
REMARK  173  A    between atoms: _393  and  _394
REMARK  174  A    between atoms: _397  and  _399
REMARK  175  A    between atoms: _399  and  _400
REMARK  176  A    between atoms: _399  and  _402
REMARK  177  A    between atoms: _402  and  _403
REMARK  178  A    between atoms: _403  and  _404
REMARK  179  A    between atoms: _404  and  _405
REMARK  180  A    between atoms: _405  and  _406
REMARK  181  A    between atoms: _411  and  _412
REMARK  182  A    between atoms: _417  and  _419
REMARK  183  A    between atoms: _419  and  _420
REMARK  184  A    between atoms: _419  and  _422
REMARK  185  A    between atoms: _422  and  _423
REMARK  186  A    between atoms: _425  and  _427
REMARK  187  A    between atoms: _427  and  _428
REMARK  188  A    between atoms: _427  and  _430
REMARK  189  A    between atoms: _430  and  _431
REMARK  190  A    between atoms: _436  and  _438
REMARK  191  A    between atoms: _438  and  _439
REMARK  192  A    between atoms: _438  and  _441
REMARK  193  A    between atoms: _441  and  _442
REMARK  194  A    between atoms: _445  and  _447
REMARK  195  A    between atoms: _447  and  _448
REMARK  196  A    between atoms: _447  and  _450
REMARK  197  A    between atoms: _450  and  _451
REMARK  198  A    between atoms: _454  and  _456
REMARK  199  A    between atoms: _456  and  _457
REMARK  200  A    between atoms: _456  and  _459
REMARK  201  A    between atoms: _459  and  _460
REMARK  202  A    between atoms: _463  and  _465
REMARK  203  A    between atoms: _465  and  _466
REMARK  204  A    between atoms: _465  and  _468
REMARK  205  A    between atoms: _468  and  _469
REMARK  206  A    between atoms: _469  and  _470
REMARK  207  A    between atoms: _470  and  _471
REMARK  208  A    between atoms: _471  and  _472
REMARK  209  A    between atoms: _476  and  _478
REMARK  210  A    between atoms: _478  and  _479
REMARK  211  A    between atoms: _478  and  _481
REMARK  212  A    between atoms: _481  and  _482
REMARK  213  A    between atoms: _485  and  _487
REMARK  214  A    between atoms: _487  and  _488
REMARK  215  A    between atoms: _487  and  _490
REMARK  216  A    between atoms: _492  and  _494
REMARK  217  A    between atoms: _494  and  _495
REMARK  218  A    between atoms: _494  and  _497
REMARK  219  A    between atoms: _497  and  _498
REMARK  220  A    between atoms: _501  and  _503
REMARK  221  A    between atoms: _503  and  _504
REMARK  222  A    between atoms: _503  and  _506
REMARK  223  A    between atoms: _506  and  _507
REMARK  224  A    between atoms: _513  and  _515
REMARK  225  A    between atoms: _515  and  _516
REMARK  226  A    between atoms: _518  and  _520
REMARK  227  A    between atoms: _520  and  _521
REMARK  228  A    between atoms: _520  and  _523
REMARK  229  A    between atoms: _523  and  _524
REMARK  230  A    between atoms: _527  and  _529
REMARK  231  A    between atoms: _529  and  _530
REMARK  232  A    between atoms: _529  and  _532
REMARK  233  A    between atoms: _532  and  _533
REMARK                            x       y       z     vdW  Elec       q    Type
REMARK                         _______ _______ _______ _____ _____    ______ ____
ROOT
ATOM      1  O   HOH     1      12.186 -14.657  47.232  0.00  0.00    +0.000 OA
ENDROOT
TORSDOF 0
REMARK  Name = ../refined-set-2016/3i60/3i60_pocket.pdb
REMARK  233 active torsions:
REMARK  status: ('A' for Active; 'I' for Inactive)
REMARK    1  A    between atoms: _1  and  _3
REMARK    2  A    between atoms: _3  and  _4
REMARK    3  A    between atoms: _3  and  _6
REMARK    4  A    between atoms: _6  and  _7
REMARK    5  A    between atoms: _9  and  _11
REMARK    6  A    between atoms: _11  and  _12
REMARK    7  A    between atoms: _11  and  _14
REMARK    8  A    between atoms: _14  and  _15
REMARK    9  A    between atoms: _20  and  _21
REMARK   10  A    between atoms: _23  and  _25
REMARK   11  A    between atoms: _25  and  _26
REMARK   12  A    between atoms: _25  and  _28
REMARK   13  A    between atoms: _28  and  _29
REMARK   14  A    between atoms: _32  and  _34
REMARK   15  A    between atoms: _34  and  _35
REMARK   16  A    between atoms: _37  and  _39
REMARK   17  A    between atoms: _39  and  _40
REMARK   18  A    between atoms: _39  and  _42
REMARK   19  A    between atoms: _42  and  _43
REMARK   20  A    between atoms: _43  and  _44
REMARK   21  A    between atoms: _47  and  _49
REMARK   22  A    between atoms: _49  and  _50
REMARK   23  A    between atoms: _52  and  _54
REMARK   24  A    between atoms: _54  and  _55
REMARK   25  A    between atoms: _58  and  _60
REMARK   26  A    between atoms: _60  and  _61
REMARK   27  A    between atoms: _60  and  _63
REMARK   28  A    between atoms: _63  and  _64
REMARK   29  A    between atoms: _69  and  _70
REMARK   30  A    between atoms: _72  and  _74
REMARK   31  A    between atoms: _74  and  _75
REMARK   32  A    between atoms: _77  and  _79
REMARK   33  A    between atoms: _79  and  _80
REMARK   34  A    between atoms: _79  and  _82
REMARK   35  A    between atoms: _82  and  _83
REMARK   36  A    between atoms: _83  and  _84
REMARK   37  A    between atoms: _86  and  _88
REMARK   38  A    between atoms: _88  and  _89
REMARK   39  A    between atoms: _88  and  _91
REMARK   40  A    between atoms: _94  and  _96
REMARK   41  A    between atoms: _96  and  _97
REMARK   42  A    between atoms: _96  and  _99
REMARK   43  A    between atoms: _101  and  _103
REMARK   44  A    between atoms: _103  and  _104
REMARK   45  A    between atoms: _103  and  _106
REMARK   46  A    between atoms: _106  and  _107
REMARK   47  A    between atoms: _109  and  _111
REMARK   48  A    between atoms: _111  and  _112
REMARK   49  A    between atoms: _111  and  _114
REMARK   50  A    between atoms: _114  and  _115
REMARK   51  A    between atoms: _115  and  _116
REMARK   52  A    between atoms: _116  and  _117
REMARK   53  A    between atoms: _126  and  _128
REMARK   54  A    between atoms: _128  and  _129
REMARK   55  A    between atoms: _128  and  _131
REMARK   56  A    between atoms: _134  and  _136
REMARK   57  A    between atoms: _136  and  _137
REMARK   58  A    between atoms: _140  and  _142
REMARK   59  A    between atoms: _142  and  _143
REMARK   60  A    between atoms: _142  and  _145
REMARK   61  A    between atoms: _145  and  _146
REMARK   62  A    between atoms: _149  and  _151
REMARK   63  A    between atoms: _151  and  _152
REMARK   64  A    between atoms: _151  and  _154
REMARK   65  A    between atoms: _154  and  _155
REMARK   66  A    between atoms: _155  and  _156
REMARK   67  A    between atoms: _156  and  _157
REMARK   68  A    between atoms: _157  and  _158
REMARK   69  A    between atoms: _162  and  _164
REMARK   70  A    between atoms: _164  and  _165
REMARK   71  A    between atoms: _164  and  _167
REMARK   72  A    between atoms: _167  and  _168
REMARK   73  A    between atoms: _168  and  _169
REMARK   74  A    between atoms: _169  and  _170
REMARK   75  A    between atoms: _170  and  _171
REMARK   76  A    between atoms: _175  and  _177
REMARK   77  A    between atoms: _177  and  _178
REMARK   78  A    between atoms: _177  and  _180
REMARK   79  A    between atoms: _180  and  _181
REMARK   80  A    between atoms: _184  and  _186
REMARK   81  A    between atoms: _186  and  _187
REMARK   82  A    between atoms: _186  and  _189
REMARK   83  A    between atoms: _189  and  _190
REMARK   84  A    between atoms: _192  and  _194
REMARK   85  A    between atoms: _194  and  _195
REMARK   86  A    between atoms: _194  and  _197
REMARK   87  A    between atoms: _197  and  _198
REMARK   88  A    between atoms: _198  and  _199
REMARK   89  A    between atoms: _199  and  _200
REMARK   90  A    between atoms: _209  and  _211
REMARK   91  A    between atoms: _211  and  _212
REMARK   92  A    between atoms: _211  and  _214
REMARK   93  A    between atoms: _214  and  _215
REMARK   94  A    between atoms: _218  and  _220
REMARK   95  A    between atoms: _220  and  _221
REMARK   96  A    between atoms: _220  and  _223
REMARK   97  A    between atoms: _223  and  _224
REMARK   98  A    between atoms: _224  and  _225
REMARK   99  A    between atoms: _228  and  _230
REMARK  100  A    between atoms: _230  and  _231
REMARK  101  A    between atoms: _230  and  _233
REMARK  102  A    between atoms: _233  and  _234
REMARK  103  A    between atoms: _237  and  _239
REMARK  104  A    between atoms: _239  and  _240
REMARK  105  A    between atoms: _239  and  _242
REMARK  106  A    between atoms: _242  and  _243
REMARK  107  A    between atoms: _246  and  _248
REMARK  108  A    between atoms: _248  and  _249
REMARK  109  A    between atoms: _251  and  _253
REMARK  110  A    between atoms: _253  and  _254
REMARK  111  A    between atoms: _253  and  _256
REMARK  112  A    between atoms: _259  and  _261
REMARK  113  A    between atoms: _261  and  _262
REMARK  114  A    between atoms: _261  and  _264
REMARK  115  A    between atoms: _264  and  _265
REMARK  116  A    between atoms: _268  and  _270
REMARK  117  A    between atoms: _270  and  _271
REMARK  118  A    between atoms: _270  and  _273
REMARK  119  A    between atoms: _276  and  _278
REMARK  120  A    between atoms: _278  and  _279
REMARK  121  A    between atoms: _278  and  _281
REMARK  122  A    between atoms: _281  and  _282
REMARK  123  A    between atoms: _282  and  _283
REMARK  124  A    between atoms: _288  and  _290
REMARK  125  A    between atoms: _290  and  _291
REMARK  126  A    between atoms: _290  and  _293
REMARK  127  A    between atoms: _293  and  _294
REMARK  128  A    between atoms: _297  and  _299
REMARK  129  A    between atoms: _299  and  _300
REMARK  130  A    between atoms: _299  and  _302
REMARK  131  A    between atoms: _302  and  _303
REMARK  132  A    between atoms: _306  and  _308
REMARK  133  A    between atoms: _308  and  _309
REMARK  134  A    between atoms: _308  and  _311
REMARK  135  A    between atoms: _311  and  _312
REMARK  136  A    between atoms: _312  and  _313
REMARK  137  A    between atoms: _315  and  _317
REMARK  138  A    between atoms: _317  and  _318
REMARK  139  A    between atoms: _317  and  _320
REMARK  140  A    between atoms: _320  and  _321
REMARK  141  A    between atoms: _321  and  _322
REMARK  142  A    between atoms: _325  and  _327
REMARK  143  A    between atoms: _327  and  _328
REMARK  144  A    between atoms: _327  and  _330
REMARK  145  A    between atoms: _330  and  _331
REMARK  146  A    between atoms: _334  and  _336
REMARK  147  A    between atoms: _336  and  _337
REMARK  148  A    between atoms: _336  and  _339
REMARK  149  A    between atoms: _339  and  _340
REMARK  150  A    between atoms: _343  and  _345
REMARK  151  A    between atoms: _345  and  _346
REMARK  152  A    between atoms: _345  and  _348
REMARK  153  A    between atoms: _348  and  _349
REMARK  154  A    between atoms: _352  and  _354
REMARK  155  A    between atoms: _354  and  _355
REMARK  156  A    between atoms: _354  and  _357
REMARK  157  A    between atoms: _357  and  _358
REMARK  158  A    between atoms: _363  and  _364
REMARK  159  A    between atoms: _366  and  _368
REMARK  160  A    between atoms: _368  and  _369
REMARK  161  A    between atoms: _368  and  _371
REMARK  162  A    between atoms: _371  and  _372
REMARK  163  A    between atoms: _372  and  _373
REMARK  164  A    between atoms: _373  and  _374
REMARK  165  A    between atoms: _374  and  _375
REMARK  166  A    between atoms: _379  and  _381
REMARK  167  A    between atoms: _381  and  _382
REMARK  168  A    between atoms: _381  and  _384
REMARK  169  A    between atoms: _384  and  _385
REMARK  170  A    between atoms: _388  and  _390
REMARK  171  A    between atoms: _390  and  _391
REMARK  172  A    between atoms: _390  and  _393
REMARK  173  A    between atoms: _393  and  _394
REMARK  174  A    between atoms: _397  and  _399
REMARK  175  A    between atoms: _399  and  _400
REMARK  176  A    between atoms: _399  and  _402
REMARK  177  A    between atoms: _402  and  _403
REMARK  178  A    between atoms: _403  and  _404
REMARK  179  A    between atoms: _404  and  _405
REMARK  180  A    between atoms: _405  and  _406
REMARK  181  A    between atoms: _411  and  _412
REMARK  182  A    between atoms: _417  and  _419
REMARK  183  A    between atoms: _419  and  _420
REMARK  184  A    between atoms: _419  and  _422
REMARK  185  A    between atoms: _422  and  _423
REMARK  186  A    between atoms: _425  and  _427
REMARK  187  A    between atoms: _427  and  _428
REMARK  188  A    between atoms: _427  and  _430
REMARK  189  A    between atoms: _430  and  _431
REMARK  190  A    between atoms: _436  and  _438
REMARK  191  A    between atoms: _438  and  _439
REMARK  192  A    between atoms: _438  and  _441
REMARK  193  A    between atoms: _441  and  _442
REMARK  194  A    between atoms: _445  and  _447
REMARK  195  A    between atoms: _447  and  _448
REMARK  196  A    between atoms: _447  and  _450
REMARK  197  A    between atoms: _450  and  _451
REMARK  198  A    between atoms: _454  and  _456
REMARK  199  A    between atoms: _456  and  _457
REMARK  200  A    between atoms: _456  and  _459
REMARK  201  A    between atoms: _459  and  _460
REMARK  202  A    between atoms: _463  and  _465
REMARK  203  A    between atoms: _465  and  _466
REMARK  204  A    between atoms: _465  and  _468
REMARK  205  A    between atoms: _468  and  _469
REMARK  206  A    between atoms: _469  and  _470
REMARK  207  A    between atoms: _470  and  _471
REMARK  208  A    between atoms: _471  and  _472
REMARK  209  A    between atoms: _476  and  _478
REMARK  210  A    between atoms: _478  and  _479
REMARK  211  A    between atoms: _478  and  _481
REMARK  212  A    between atoms: _481  and  _482
REMARK  213  A    between atoms: _485  and  _487
REMARK  214  A    between atoms: _487  and  _488
REMARK  215  A    between atoms: _487  and  _490
REMARK  216  A    between atoms: _492  and  _494
REMARK  217  A    between atoms: _494  and  _495
REMARK  218  A    between atoms: _494  and  _497
REMARK  219  A    between atoms: _497  and  _498
REMARK  220  A    between atoms: _501  and  _503
REMARK  221  A    between atoms: _503  and  _504
REMARK  222  A    between atoms: _503  and  _506
REMARK  223  A    between atoms: _506  and  _507
REMARK  224  A    between atoms: _513  and  _515
REMARK  225  A    between atoms: _515  and  _516
REMARK  226  A    between atoms: _518  and  _520
REMARK  227  A    between atoms: _520  and  _521
REMARK  228  A    between atoms: _520  and  _523
REMARK  229  A    between atoms: _523  and  _524
REMARK  230  A    between atoms: _527  and  _529
REMARK  231  A    between atoms: _529  and  _530
REMARK  232  A    between atoms: _529  and  _532
REMARK  233  A    between atoms: _532  and  _533
REMARK                            x       y       z     vdW  Elec       q    Type
REMARK                         _______ _______ _______ _____ _____    ______ ____
ROOT
ATOM      1  O   HOH     1      12.892   1.012  47.388  0.00  0.00    +0.000 OA
ENDROOT
TORSDOF 0
REMARK  Name = ../refined-set-2016/3i60/3i60_pocket.pdb
REMARK  233 active torsions:
REMARK  status: ('A' for Active; 'I' for Inactive)
REMARK    1  A    between atoms: _1  and  _3
REMARK    2  A    between atoms: _3  and  _4
REMARK    3  A    between atoms: _3  and  _6
REMARK    4  A    between atoms: _6  and  _7
REMARK    5  A    between atoms: _9  and  _11
REMARK    6  A    between atoms: _11  and  _12
REMARK    7  A    between atoms: _11  and  _14
REMARK    8  A    between atoms: _14  and  _15
REMARK    9  A    between atoms: _20  and  _21
REMARK   10  A    between atoms: _23  and  _25
REMARK   11  A    between atoms: _25  and  _26
REMARK   12  A    between atoms: _25  and  _28
REMARK   13  A    between atoms: _28  and  _29
REMARK   14  A    between atoms: _32  and  _34
REMARK   15  A    between atoms: _34  and  _35
REMARK   16  A    between atoms: _37  and  _39
REMARK   17  A    between atoms: _39  and  _40
REMARK   18  A    between atoms: _39  and  _42
REMARK   19  A    between atoms: _42  and  _43
REMARK   20  A    between atoms: _43  and  _44
REMARK   21  A    between atoms: _47  and  _49
REMARK   22  A    between atoms: _49  and  _50
REMARK   23  A    between atoms: _52  and  _54
REMARK   24  A    between atoms: _54  and  _55
REMARK   25  A    between atoms: _58  and  _60
REMARK   26  A    between atoms: _60  and  _61
REMARK   27  A    between atoms: _60  and  _63
REMARK   28  A    between atoms: _63  and  _64
REMARK   29  A    between atoms: _69  and  _70
REMARK   30  A    between atoms: _72  and  _74
REMARK   31  A    between atoms: _74  and  _75
REMARK   32  A    between atoms: _77  and  _79
REMARK   33  A    between atoms: _79  and  _80
REMARK   34  A    between atoms: _79  and  _82
REMARK   35  A    between atoms: _82  and  _83
REMARK   36  A    between atoms: _83  and  _84
REMARK   37  A    between atoms: _86  and  _88
REMARK   38  A    between atoms: _88  and  _89
REMARK   39  A    between atoms: _88  and  _91
REMARK   40  A    between atoms: _94  and  _96
REMARK   41  A    between atoms: _96  and  _97
REMARK   42  A    between atoms: _96  and  _99
REMARK   43  A    between atoms: _101  and  _103
REMARK   44  A    between atoms: _103  and  _104
REMARK   45  A    between atoms: _103  and  _106
REMARK   46  A    between atoms: _106  and  _107
REMARK   47  A    between atoms: _109  and  _111
REMARK   48  A    between atoms: _111  and  _112
REMARK   49  A    between atoms: _111  and  _114
REMARK   50  A    between atoms: _114  and  _115
REMARK   51  A    between atoms: _115  and  _116
REMARK   52  A    between atoms: _116  and  _117
REMARK   53  A    between atoms: _126  and  _128
REMARK   54  A    between atoms: _128  and  _129
REMARK   55  A    between atoms: _128  and  _131
REMARK   56  A    between atoms: _134  and  _136
REMARK   57  A    between atoms: _136  and  _137
REMARK   58  A    between atoms: _140  and  _142
REMARK   59  A    between atoms: _142  and  _143
REMARK   60  A    between atoms: _142  and  _145
REMARK   61  A    between atoms: _145  and  _146
REMARK   62  A    between atoms: _149  and  _151
REMARK   63  A    between atoms: _151  and  _152
REMARK   64  A    between atoms: _151  and  _154
REMARK   65  A    between atoms: _154  and  _155
REMARK   66  A    between atoms: _155  and  _156
REMARK   67  A    between atoms: _156  and  _157
REMARK   68  A    between atoms: _157  and  _158
REMARK   69  A    between atoms: _162  and  _164
REMARK   70  A    between atoms: _164  and  _165
REMARK   71  A    between atoms: _164  and  _167
REMARK   72  A    between atoms: _167  and  _168
REMARK   73  A    between atoms: _168  and  _169
REMARK   74  A    between atoms: _169  and  _170
REMARK   75  A    between atoms: _170  and  _171
REMARK   76  A    between atoms: _175  and  _177
REMARK   77  A    between atoms: _177  and  _178
REMARK   78  A    between atoms: _177  and  _180
REMARK   79  A    between atoms: _180  and  _181
REMARK   80  A    between atoms: _184  and  _186
REMARK   81  A    between atoms: _186  and  _187
REMARK   82  A    between atoms: _186  and  _189
REMARK   83  A    between atoms: _189  and  _190
REMARK   84  A    between atoms: _192  and  _194
REMARK   85  A    between atoms: _194  and  _195
REMARK   86  A    between atoms: _194  and  _197
REMARK   87  A    between atoms: _197  and  _198
REMARK   88  A    between atoms: _198  and  _199
REMARK   89  A    between atoms: _199  and  _200
REMARK   90  A    between atoms: _209  and  _211
REMARK   91  A    between atoms: _211  and  _212
REMARK   92  A    between atoms: _211  and  _214
REMARK   93  A    between atoms: _214  and  _215
REMARK   94  A    between atoms: _218  and  _220
REMARK   95  A    between atoms: _220  and  _221
REMARK   96  A    between atoms: _220  and  _223
REMARK   97  A    between atoms: _223  and  _224
REMARK   98  A    between atoms: _224  and  _225
REMARK   99  A    between atoms: _228  and  _230
REMARK  100  A    between atoms: _230  and  _231
REMARK  101  A    between atoms: _230  and  _233
REMARK  102  A    between atoms: _233  and  _234
REMARK  103  A    between atoms: _237  and  _239
REMARK  104  A    between atoms: _239  and  _240
REMARK  105  A    between atoms: _239  and  _242
REMARK  106  A    between atoms: _242  and  _243
REMARK  107  A    between atoms: _246  and  _248
REMARK  108  A    between atoms: _248  and  _249
REMARK  109  A    between atoms: _251  and  _253
REMARK  110  A    between atoms: _253  and  _254
REMARK  111  A    between atoms: _253  and  _256
REMARK  112  A    between atoms: _259  and  _261
REMARK  113  A    between atoms: _261  and  _262
REMARK  114  A    between atoms: _261  and  _264
REMARK  115  A    between atoms: _264  and  _265
REMARK  116  A    between atoms: _268  and  _270
REMARK  117  A    between atoms: _270  and  _271
REMARK  118  A    between atoms: _270  and  _273
REMARK  119  A    between atoms: _276  and  _278
REMARK  120  A    between atoms: _278  and  _279
REMARK  121  A    between atoms: _278  and  _281
REMARK  122  A    between atoms: _281  and  _282
REMARK  123  A    between atoms: _282  and  _283
REMARK  124  A    between atoms: _288  and  _290
REMARK  125  A    between atoms: _290  and  _291
REMARK  126  A    between atoms: _290  and  _293
REMARK  127  A    between atoms: _293  and  _294
REMARK  128  A    between atoms: _297  and  _299
REMARK  129  A    between atoms: _299  and  _300
REMARK  130  A    between atoms: _299  and  _302
REMARK  131  A    between atoms: _302  and  _303
REMARK  132  A    between atoms: _306  and  _308
REMARK  133  A    between atoms: _308  and  _309
REMARK  134  A    between atoms: _308  and  _311
REMARK  135  A    between atoms: _311  and  _312
REMARK  136  A    between atoms: _312  and  _313
REMARK  137  A    between atoms: _315  and  _317
REMARK  138  A    between atoms: _317  and  _318
REMARK  139  A    between atoms: _317  and  _320
REMARK  140  A    between atoms: _320  and  _321
REMARK  141  A    between atoms: _321  and  _322
REMARK  142  A    between atoms: _325  and  _327
REMARK  143  A    between atoms: _327  and  _328
REMARK  144  A    between atoms: _327  and  _330
REMARK  145  A    between atoms: _330  and  _331
REMARK  146  A    between atoms: _334  and  _336
REMARK  147  A    between atoms: _336  and  _337
REMARK  148  A    between atoms: _336  and  _339
REMARK  149  A    between atoms: _339  and  _340
REMARK  150  A    between atoms: _343  and  _345
REMARK  151  A    between atoms: _345  and  _346
REMARK  152  A    between atoms: _345  and  _348
REMARK  153  A    between atoms: _348  and  _349
REMARK  154  A    between atoms: _352  and  _354
REMARK  155  A    between atoms: _354  and  _355
REMARK  156  A    between atoms: _354  and  _357
REMARK  157  A    between atoms: _357  and  _358
REMARK  158  A    between atoms: _363  and  _364
REMARK  159  A    between atoms: _366  and  _368
REMARK  160  A    between atoms: _368  and  _369
REMARK  161  A    between atoms: _368  and  _371
REMARK  162  A    between atoms: _371  and  _372
REMARK  163  A    between atoms: _372  and  _373
REMARK  164  A    between atoms: _373  and  _374
REMARK  165  A    between atoms: _374  and  _375
REMARK  166  A    between atoms: _379  and  _381
REMARK  167  A    between atoms: _381  and  _382
REMARK  168  A    between atoms: _381  and  _384
REMARK  169  A    between atoms: _384  and  _385
REMARK  170  A    between atoms: _388  and  _390
REMARK  171  A    between atoms: _390  and  _391
REMARK  172  A    between atoms: _390  and  _393
REMARK  173  A    between atoms: _393  and  _394
REMARK  174  A    between atoms: _397  and  _399
REMARK  175  A    between atoms: _399  and  _400
REMARK  176  A    between atoms: _399  and  _402
REMARK  177  A    between atoms: _402  and  _403
REMARK  178  A    between atoms: _403  and  _404
REMARK  179  A    between atoms: _404  and  _405
REMARK  180  A    between atoms: _405  and  _406
REMARK  181  A    between atoms: _411  and  _412
REMARK  182  A    between atoms: _417  and  _419
REMARK  183  A    between atoms: _419  and  _420
REMARK  184  A    between atoms: _419  and  _422
REMARK  185  A    between atoms: _422  and  _423
REMARK  186  A    between atoms: _425  and  _427
REMARK  187  A    between atoms: _427  and  _428
REMARK  188  A    between atoms: _427  and  _430
REMARK  189  A    between atoms: _430  and  _431
REMARK  190  A    between atoms: _436  and  _438
REMARK  191  A    between atoms: _438  and  _439
REMARK  192  A    between atoms: _438  and  _441
REMARK  193  A    between atoms: _441  and  _442
REMARK  194  A    between atoms: _445  and  _447
REMARK  195  A    between atoms: _447  and  _448
REMARK  196  A    between atoms: _447  and  _450
REMARK  197  A    between atoms: _450  and  _451
REMARK  198  A    between atoms: _454  and  _456
REMARK  199  A    between atoms: _456  and  _457
REMARK  200  A    between atoms: _456  and  _459
REMARK  201  A    between atoms: _459  and  _460
REMARK  202  A    between atoms: _463  and  _465
REMARK  203  A    between atoms: _465  and  _466
REMARK  204  A    between atoms: _465  and  _468
REMARK  205  A    between atoms: _468  and  _469
REMARK  206  A    between atoms: _469  and  _470
REMARK  207  A    between atoms: _470  and  _471
REMARK  208  A    between atoms: _471  and  _472
REMARK  209  A    between atoms: _476  and  _478
REMARK  210  A    between atoms: _478  and  _479
REMARK  211  A    between atoms: _478  and  _481
REMARK  212  A    between atoms: _481  and  _482
REMARK  213  A    between atoms: _485  and  _487
REMARK  214  A    between atoms: _487  and  _488
REMARK  215  A    between atoms: _487  and  _490
REMARK  216  A    between atoms: _492  and  _494
REMARK  217  A    between atoms: _494  and  _495
REMARK  218  A    between atoms: _494  and  _497
REMARK  219  A    between atoms: _497  and  _498
REMARK  220  A    between atoms: _501  and  _503
REMARK  221  A    between atoms: _503  and  _504
REMARK  222  A    between atoms: _503  and  _506
REMARK  223  A    between atoms: _506  and  _507
REMARK  224  A    between atoms: _513  and  _515
REMARK  225  A    between atoms: _515  and  _516
REMARK  226  A    between atoms: _518  and  _520
REMARK  227  A    between atoms: _520  and  _521
REMARK  228  A    between atoms: _520  and  _523
REMARK  229  A    between atoms: _523  and  _524
REMARK  230  A    between atoms: _527  and  _529
REMARK  231  A    between atoms: _529  and  _530
REMARK  232  A    between atoms: _529  and  _532
REMARK  233  A    between atoms: _532  and  _533
REMARK                            x       y       z     vdW  Elec       q    Type
REMARK                         _______ _______ _______ _____ _____    ______ ____
ROOT
ATOM      1  O   HOH     1      10.944  -0.542  47.125  0.00  0.00    +0.000 OA
ENDROOT
TORSDOF 0
REMARK  Name = ../refined-set-2016/3i60/3i60_pocket.pdb
REMARK  233 active torsions:
REMARK  status: ('A' for Active; 'I' for Inactive)
REMARK    1  A    between atoms: _1  and  _3
REMARK    2  A    between atoms: _3  and  _4
REMARK    3  A    between atoms: _3  and  _6
REMARK    4  A    between atoms: _6  and  _7
REMARK    5  A    between atoms: _9  and  _11
REMARK    6  A    between atoms: _11  and  _12
REMARK    7  A    between atoms: _11  and  _14
REMARK    8  A    between atoms: _14  and  _15
REMARK    9  A    between atoms: _20  and  _21
REMARK   10  A    between atoms: _23  and  _25
REMARK   11  A    between atoms: _25  and  _26
REMARK   12  A    between atoms: _25  and  _28
REMARK   13  A    between atoms: _28  and  _29
REMARK   14  A    between atoms: _32  and  _34
REMARK   15  A    between atoms: _34  and  _35
REMARK   16  A    between atoms: _37  and  _39
REMARK   17  A    between atoms: _39  and  _40
REMARK   18  A    between atoms: _39  and  _42
REMARK   19  A    between atoms: _42  and  _43
REMARK   20  A    between atoms: _43  and  _44
REMARK   21  A    between atoms: _47  and  _49
REMARK   22  A    between atoms: _49  and  _50
REMARK   23  A    between atoms: _52  and  _54
REMARK   24  A    between atoms: _54  and  _55
REMARK   25  A    between atoms: _58  and  _60
REMARK   26  A    between atoms: _60  and  _61
REMARK   27  A    between atoms: _60  and  _63
REMARK   28  A    between atoms: _63  and  _64
REMARK   29  A    between atoms: _69  and  _70
REMARK   30  A    between atoms: _72  and  _74
REMARK   31  A    between atoms: _74  and  _75
REMARK   32  A    between atoms: _77  and  _79
REMARK   33  A    between atoms: _79  and  _80
REMARK   34  A    between atoms: _79  and  _82
REMARK   35  A    between atoms: _82  and  _83
REMARK   36  A    between atoms: _83  and  _84
REMARK   37  A    between atoms: _86  and  _88
REMARK   38  A    between atoms: _88  and  _89
REMARK   39  A    between atoms: _88  and  _91
REMARK   40  A    between atoms: _94  and  _96
REMARK   41  A    between atoms: _96  and  _97
REMARK   42  A    between atoms: _96  and  _99
REMARK   43  A    between atoms: _101  and  _103
REMARK   44  A    between atoms: _103  and  _104
REMARK   45  A    between atoms: _103  and  _106
REMARK   46  A    between atoms: _106  and  _107
REMARK   47  A    between atoms: _109  and  _111
REMARK   48  A    between atoms: _111  and  _112
REMARK   49  A    between atoms: _111  and  _114
REMARK   50  A    between atoms: _114  and  _115
REMARK   51  A    between atoms: _115  and  _116
REMARK   52  A    between atoms: _116  and  _117
REMARK   53  A    between atoms: _126  and  _128
REMARK   54  A    between atoms: _128  and  _129
REMARK   55  A    between atoms: _128  and  _131
REMARK   56  A    between atoms: _134  and  _136
REMARK   57  A    between atoms: _136  and  _137
REMARK   58  A    between atoms: _140  and  _142
REMARK   59  A    between atoms: _142  and  _143
REMARK   60  A    between atoms: _142  and  _145
REMARK   61  A    between atoms: _145  and  _146
REMARK   62  A    between atoms: _149  and  _151
REMARK   63  A    between atoms: _151  and  _152
REMARK   64  A    between atoms: _151  and  _154
REMARK   65  A    between atoms: _154  and  _155
REMARK   66  A    between atoms: _155  and  _156
REMARK   67  A    between atoms: _156  and  _157
REMARK   68  A    between atoms: _157  and  _158
REMARK   69  A    between atoms: _162  and  _164
REMARK   70  A    between atoms: _164  and  _165
REMARK   71  A    between atoms: _164  and  _167
REMARK   72  A    between atoms: _167  and  _168
REMARK   73  A    between atoms: _168  and  _169
REMARK   74  A    between atoms: _169  and  _170
REMARK   75  A    between atoms: _170  and  _171
REMARK   76  A    between atoms: _175  and  _177
REMARK   77  A    between atoms: _177  and  _178
REMARK   78  A    between atoms: _177  and  _180
REMARK   79  A    between atoms: _180  and  _181
REMARK   80  A    between atoms: _184  and  _186
REMARK   81  A    between atoms: _186  and  _187
REMARK   82  A    between atoms: _186  and  _189
REMARK   83  A    between atoms: _189  and  _190
REMARK   84  A    between atoms: _192  and  _194
REMARK   85  A    between atoms: _194  and  _195
REMARK   86  A    between atoms: _194  and  _197
REMARK   87  A    between atoms: _197  and  _198
REMARK   88  A    between atoms: _198  and  _199
REMARK   89  A    between atoms: _199  and  _200
REMARK   90  A    between atoms: _209  and  _211
REMARK   91  A    between atoms: _211  and  _212
REMARK   92  A    between atoms: _211  and  _214
REMARK   93  A    between atoms: _214  and  _215
REMARK   94  A    between atoms: _218  and  _220
REMARK   95  A    between atoms: _220  and  _221
REMARK   96  A    between atoms: _220  and  _223
REMARK   97  A    between atoms: _223  and  _224
REMARK   98  A    between atoms: _224  and  _225
REMARK   99  A    between atoms: _228  and  _230
REMARK  100  A    between atoms: _230  and  _231
REMARK  101  A    between atoms: _230  and  _233
REMARK  102  A    between atoms: _233  and  _234
REMARK  103  A    between atoms: _237  and  _239
REMARK  104  A    between atoms: _239  and  _240
REMARK  105  A    between atoms: _239  and  _242
REMARK  106  A    between atoms: _242  and  _243
REMARK  107  A    between atoms: _246  and  _248
REMARK  108  A    between atoms: _248  and  _249
REMARK  109  A    between atoms: _251  and  _253
REMARK  110  A    between atoms: _253  and  _254
REMARK  111  A    between atoms: _253  and  _256
REMARK  112  A    between atoms: _259  and  _261
REMARK  113  A    between atoms: _261  and  _262
REMARK  114  A    between atoms: _261  and  _264
REMARK  115  A    between atoms: _264  and  _265
REMARK  116  A    between atoms: _268  and  _270
REMARK  117  A    between atoms: _270  and  _271
REMARK  118  A    between atoms: _270  and  _273
REMARK  119  A    between atoms: _276  and  _278
REMARK  120  A    between atoms: _278  and  _279
REMARK  121  A    between atoms: _278  and  _281
REMARK  122  A    between atoms: _281  and  _282
REMARK  123  A    between atoms: _282  and  _283
REMARK  124  A    between atoms: _288  and  _290
REMARK  125  A    between atoms: _290  and  _291
REMARK  126  A    between atoms: _290  and  _293
REMARK  127  A    between atoms: _293  and  _294
REMARK  128  A    between atoms: _297  and  _299
REMARK  129  A    between atoms: _299  and  _300
REMARK  130  A    between atoms: _299  and  _302
REMARK  131  A    between atoms: _302  and  _303
REMARK  132  A    between atoms: _306  and  _308
REMARK  133  A    between atoms: _308  and  _309
REMARK  134  A    between atoms: _308  and  _311
REMARK  135  A    between atoms: _311  and  _312
REMARK  136  A    between atoms: _312  and  _313
REMARK  137  A    between atoms: _315  and  _317
REMARK  138  A    between atoms: _317  and  _318
REMARK  139  A    between atoms: _317  and  _320
REMARK  140  A    between atoms: _320  and  _321
REMARK  141  A    between atoms: _321  and  _322
REMARK  142  A    between atoms: _325  and  _327
REMARK  143  A    between atoms: _327  and  _328
REMARK  144  A    between atoms: _327  and  _330
REMARK  145  A    between atoms: _330  and  _331
REMARK  146  A    between atoms: _334  and  _336
REMARK  147  A    between atoms: _336  and  _337
REMARK  148  A    between atoms: _336  and  _339
REMARK  149  A    between atoms: _339  and  _340
REMARK  150  A    between atoms: _343  and  _345
REMARK  151  A    between atoms: _345  and  _346
REMARK  152  A    between atoms: _345  and  _348
REMARK  153  A    between atoms: _348  and  _349
REMARK  154  A    between atoms: _352  and  _354
REMARK  155  A    between atoms: _354  and  _355
REMARK  156  A    between atoms: _354  and  _357
REMARK  157  A    between atoms: _357  and  _358
REMARK  158  A    between atoms: _363  and  _364
REMARK  159  A    between atoms: _366  and  _368
REMARK  160  A    between atoms: _368  and  _369
REMARK  161  A    between atoms: _368  and  _371
REMARK  162  A    between atoms: _371  and  _372
REMARK  163  A    between atoms: _372  and  _373
REMARK  164  A    between atoms: _373  and  _374
REMARK  165  A    between atoms: _374  and  _375
REMARK  166  A    between atoms: _379  and  _381
REMARK  167  A    between atoms: _381  and  _382
REMARK  168  A    between atoms: _381  and  _384
REMARK  169  A    between atoms: _384  and  _385
REMARK  170  A    between atoms: _388  and  _390
REMARK  171  A    between atoms: _390  and  _391
REMARK  172  A    between atoms: _390  and  _393
REMARK  173  A    between atoms: _393  and  _394
REMARK  174  A    between atoms: _397  and  _399
REMARK  175  A    between atoms: _399  and  _400
REMARK  176  A    between atoms: _399  and  _402
REMARK  177  A    between atoms: _402  and  _403
REMARK  178  A    between atoms: _403  and  _404
REMARK  179  A    between atoms: _404  and  _405
REMARK  180  A    between atoms: _405  and  _406
REMARK  181  A    between atoms: _411  and  _412
REMARK  182  A    between atoms: _417  and  _419
REMARK  183  A    between atoms: _419  and  _420
REMARK  184  A    between atoms: _419  and  _422
REMARK  185  A    between atoms: _422  and  _423
REMARK  186  A    between atoms: _425  and  _427
REMARK  187  A    between atoms: _427  and  _428
REMARK  188  A    between atoms: _427  and  _430
REMARK  189  A    between atoms: _430  and  _431
REMARK  190  A    between atoms: _436  and  _438
REMARK  191  A    between atoms: _438  and  _439
REMARK  192  A    between atoms: _438  and  _441
REMARK  193  A    between atoms: _441  and  _442
REMARK  194  A    between atoms: _445  and  _447
REMARK  195  A    between atoms: _447  and  _448
REMARK  196  A    between atoms: _447  and  _450
REMARK  197  A    between atoms: _450  and  _451
REMARK  198  A    between atoms: _454  and  _456
REMARK  199  A    between atoms: _456  and  _457
REMARK  200  A    between atoms: _456  and  _459
REMARK  201  A    between atoms: _459  and  _460
REMARK  202  A    between atoms: _463  and  _465
REMARK  203  A    between atoms: _465  and  _466
REMARK  204  A    between atoms: _465  and  _468
REMARK  205  A    between atoms: _468  and  _469
REMARK  206  A    between atoms: _469  and  _470
REMARK  207  A    between atoms: _470  and  _471
REMARK  208  A    between atoms: _471  and  _472
REMARK  209  A    between atoms: _476  and  _478
REMARK  210  A    between atoms: _478  and  _479
REMARK  211  A    between atoms: _478  and  _481
REMARK  212  A    between atoms: _481  and  _482
REMARK  213  A    between atoms: _485  and  _487
REMARK  214  A    between atoms: _487  and  _488
REMARK  215  A    between atoms: _487  and  _490
REMARK  216  A    between atoms: _492  and  _494
REMARK  217  A    between atoms: _494  and  _495
REMARK  218  A    between atoms: _494  and  _497
REMARK  219  A    between atoms: _497  and  _498
REMARK  220  A    between atoms: _501  and  _503
REMARK  221  A    between atoms: _503  and  _504
REMARK  222  A    between atoms: _503  and  _506
REMARK  223  A    between atoms: _506  and  _507
REMARK  224  A    between atoms: _513  and  _515
REMARK  225  A    between atoms: _515  and  _516
REMARK  226  A    between atoms: _518  and  _520
REMARK  227  A    between atoms: _520  and  _521
REMARK  228  A    between atoms: _520  and  _523
REMARK  229  A    between atoms: _523  and  _524
REMARK  230  A    between atoms: _527  and  _529
REMARK  231  A    between atoms: _529  and  _530
REMARK  232  A    between atoms: _529  and  _532
REMARK  233  A    between atoms: _532  and  _533
REMARK                            x       y       z     vdW  Elec       q    Type
REMARK                         _______ _______ _______ _____ _____    ______ ____
ROOT
ATOM      1  O   HOH     1      -0.320   2.249  51.986  0.00  0.00    +0.000 OA
ENDROOT
TORSDOF 0
REMARK  Name = ../refined-set-2016/3i60/3i60_pocket.pdb
REMARK  233 active torsions:
REMARK  status: ('A' for Active; 'I' for Inactive)
REMARK    1  A    between atoms: _1  and  _3
REMARK    2  A    between atoms: _3  and  _4
REMARK    3  A    between atoms: _3  and  _6
REMARK    4  A    between atoms: _6  and  _7
REMARK    5  A    between atoms: _9  and  _11
REMARK    6  A    between atoms: _11  and  _12
REMARK    7  A    between atoms: _11  and  _14
REMARK    8  A    between atoms: _14  and  _15
REMARK    9  A    between atoms: _20  and  _21
REMARK   10  A    between atoms: _23  and  _25
REMARK   11  A    between atoms: _25  and  _26
REMARK   12  A    between atoms: _25  and  _28
REMARK   13  A    between atoms: _28  and  _29
REMARK   14  A    between atoms: _32  and  _34
REMARK   15  A    between atoms: _34  and  _35
REMARK   16  A    between atoms: _37  and  _39
REMARK   17  A    between atoms: _39  and  _40
REMARK   18  A    between atoms: _39  and  _42
REMARK   19  A    between atoms: _42  and  _43
REMARK   20  A    between atoms: _43  and  _44
REMARK   21  A    between atoms: _47  and  _49
REMARK   22  A    between atoms: _49  and  _50
REMARK   23  A    between atoms: _52  and  _54
REMARK   24  A    between atoms: _54  and  _55
REMARK   25  A    between atoms: _58  and  _60
REMARK   26  A    between atoms: _60  and  _61
REMARK   27  A    between atoms: _60  and  _63
REMARK   28  A    between atoms: _63  and  _64
REMARK   29  A    between atoms: _69  and  _70
REMARK   30  A    between atoms: _72  and  _74
REMARK   31  A    between atoms: _74  and  _75
REMARK   32  A    between atoms: _77  and  _79
REMARK   33  A    between atoms: _79  and  _80
REMARK   34  A    between atoms: _79  and  _82
REMARK   35  A    between atoms: _82  and  _83
REMARK   36  A    between atoms: _83  and  _84
REMARK   37  A    between atoms: _86  and  _88
REMARK   38  A    between atoms: _88  and  _89
REMARK   39  A    between atoms: _88  and  _91
REMARK   40  A    between atoms: _94  and  _96
REMARK   41  A    between atoms: _96  and  _97
REMARK   42  A    between atoms: _96  and  _99
REMARK   43  A    between atoms: _101  and  _103
REMARK   44  A    between atoms: _103  and  _104
REMARK   45  A    between atoms: _103  and  _106
REMARK   46  A    between atoms: _106  and  _107
REMARK   47  A    between atoms: _109  and  _111
REMARK   48  A    between atoms: _111  and  _112
REMARK   49  A    between atoms: _111  and  _114
REMARK   50  A    between atoms: _114  and  _115
REMARK   51  A    between atoms: _115  and  _116
REMARK   52  A    between atoms: _116  and  _117
REMARK   53  A    between atoms: _126  and  _128
REMARK   54  A    between atoms: _128  and  _129
REMARK   55  A    between atoms: _128  and  _131
REMARK   56  A    between atoms: _134  and  _136
REMARK   57  A    between atoms: _136  and  _137
REMARK   58  A    between atoms: _140  and  _142
REMARK   59  A    between atoms: _142  and  _143
REMARK   60  A    between atoms: _142  and  _145
REMARK   61  A    between atoms: _145  and  _146
REMARK   62  A    between atoms: _149  and  _151
REMARK   63  A    between atoms: _151  and  _152
REMARK   64  A    between atoms: _151  and  _154
REMARK   65  A    between atoms: _154  and  _155
REMARK   66  A    between atoms: _155  and  _156
REMARK   67  A    between atoms: _156  and  _157
REMARK   68  A    between atoms: _157  and  _158
REMARK   69  A    between atoms: _162  and  _164
REMARK   70  A    between atoms: _164  and  _165
REMARK   71  A    between atoms: _164  and  _167
REMARK   72  A    between atoms: _167  and  _168
REMARK   73  A    between atoms: _168  and  _169
REMARK   74  A    between atoms: _169  and  _170
REMARK   75  A    between atoms: _170  and  _171
REMARK   76  A    between atoms: _175  and  _177
REMARK   77  A    between atoms: _177  and  _178
REMARK   78  A    between atoms: _177  and  _180
REMARK   79  A    between atoms: _180  and  _181
REMARK   80  A    between atoms: _184  and  _186
REMARK   81  A    between atoms: _186  and  _187
REMARK   82  A    between atoms: _186  and  _189
REMARK   83  A    between atoms: _189  and  _190
REMARK   84  A    between atoms: _192  and  _194
REMARK   85  A    between atoms: _194  and  _195
REMARK   86  A    between atoms: _194  and  _197
REMARK   87  A    between atoms: _197  and  _198
REMARK   88  A    between atoms: _198  and  _199
REMARK   89  A    between atoms: _199  and  _200
REMARK   90  A    between atoms: _209  and  _211
REMARK   91  A    between atoms: _211  and  _212
REMARK   92  A    between atoms: _211  and  _214
REMARK   93  A    between atoms: _214  and  _215
REMARK   94  A    between atoms: _218  and  _220
REMARK   95  A    between atoms: _220  and  _221
REMARK   96  A    between atoms: _220  and  _223
REMARK   97  A    between atoms: _223  and  _224
REMARK   98  A    between atoms: _224  and  _225
REMARK   99  A    between atoms: _228  and  _230
REMARK  100  A    between atoms: _230  and  _231
REMARK  101  A    between atoms: _230  and  _233
REMARK  102  A    between atoms: _233  and  _234
REMARK  103  A    between atoms: _237  and  _239
REMARK  104  A    between atoms: _239  and  _240
REMARK  105  A    between atoms: _239  and  _242
REMARK  106  A    between atoms: _242  and  _243
REMARK  107  A    between atoms: _246  and  _248
REMARK  108  A    between atoms: _248  and  _249
REMARK  109  A    between atoms: _251  and  _253
REMARK  110  A    between atoms: _253  and  _254
REMARK  111  A    between atoms: _253  and  _256
REMARK  112  A    between atoms: _259  and  _261
REMARK  113  A    between atoms: _261  and  _262
REMARK  114  A    between atoms: _261  and  _264
REMARK  115  A    between atoms: _264  and  _265
REMARK  116  A    between atoms: _268  and  _270
REMARK  117  A    between atoms: _270  and  _271
REMARK  118  A    between atoms: _270  and  _273
REMARK  119  A    between atoms: _276  and  _278
REMARK  120  A    between atoms: _278  and  _279
REMARK  121  A    between atoms: _278  and  _281
REMARK  122  A    between atoms: _281  and  _282
REMARK  123  A    between atoms: _282  and  _283
REMARK  124  A    between atoms: _288  and  _290
REMARK  125  A    between atoms: _290  and  _291
REMARK  126  A    between atoms: _290  and  _293
REMARK  127  A    between atoms: _293  and  _294
REMARK  128  A    between atoms: _297  and  _299
REMARK  129  A    between atoms: _299  and  _300
REMARK  130  A    between atoms: _299  and  _302
REMARK  131  A    between atoms: _302  and  _303
REMARK  132  A    between atoms: _306  and  _308
REMARK  133  A    between atoms: _308  and  _309
REMARK  134  A    between atoms: _308  and  _311
REMARK  135  A    between atoms: _311  and  _312
REMARK  136  A    between atoms: _312  and  _313
REMARK  137  A    between atoms: _315  and  _317
REMARK  138  A    between atoms: _317  and  _318
REMARK  139  A    between atoms: _317  and  _320
REMARK  140  A    between atoms: _320  and  _321
REMARK  141  A    between atoms: _321  and  _322
REMARK  142  A    between atoms: _325  and  _327
REMARK  143  A    between atoms: _327  and  _328
REMARK  144  A    between atoms: _327  and  _330
REMARK  145  A    between atoms: _330  and  _331
REMARK  146  A    between atoms: _334  and  _336
REMARK  147  A    between atoms: _336  and  _337
REMARK  148  A    between atoms: _336  and  _339
REMARK  149  A    between atoms: _339  and  _340
REMARK  150  A    between atoms: _343  and  _345
REMARK  151  A    between atoms: _345  and  _346
REMARK  152  A    between atoms: _345  and  _348
REMARK  153  A    between atoms: _348  and  _349
REMARK  154  A    between atoms: _352  and  _354
REMARK  155  A    between atoms: _354  and  _355
REMARK  156  A    between atoms: _354  and  _357
REMARK  157  A    between atoms: _357  and  _358
REMARK  158  A    between atoms: _363  and  _364
REMARK  159  A    between atoms: _366  and  _368
REMARK  160  A    between atoms: _368  and  _369
REMARK  161  A    between atoms: _368  and  _371
REMARK  162  A    between atoms: _371  and  _372
REMARK  163  A    between atoms: _372  and  _373
REMARK  164  A    between atoms: _373  and  _374
REMARK  165  A    between atoms: _374  and  _375
REMARK  166  A    between atoms: _379  and  _381
REMARK  167  A    between atoms: _381  and  _382
REMARK  168  A    between atoms: _381  and  _384
REMARK  169  A    between atoms: _384  and  _385
REMARK  170  A    between atoms: _388  and  _390
REMARK  171  A    between atoms: _390  and  _391
REMARK  172  A    between atoms: _390  and  _393
REMARK  173  A    between atoms: _393  and  _394
REMARK  174  A    between atoms: _397  and  _399
REMARK  175  A    between atoms: _399  and  _400
REMARK  176  A    between atoms: _399  and  _402
REMARK  177  A    between atoms: _402  and  _403
REMARK  178  A    between atoms: _403  and  _404
REMARK  179  A    between atoms: _404  and  _405
REMARK  180  A    between atoms: _405  and  _406
REMARK  181  A    between atoms: _411  and  _412
REMARK  182  A    between atoms: _417  and  _419
REMARK  183  A    between atoms: _419  and  _420
REMARK  184  A    between atoms: _419  and  _422
REMARK  185  A    between atoms: _422  and  _423
REMARK  186  A    between atoms: _425  and  _427
REMARK  187  A    between atoms: _427  and  _428
REMARK  188  A    between atoms: _427  and  _430
REMARK  189  A    between atoms: _430  and  _431
REMARK  190  A    between atoms: _436  and  _438
REMARK  191  A    between atoms: _438  and  _439
REMARK  192  A    between atoms: _438  and  _441
REMARK  193  A    between atoms: _441  and  _442
REMARK  194  A    between atoms: _445  and  _447
REMARK  195  A    between atoms: _447  and  _448
REMARK  196  A    between atoms: _447  and  _450
REMARK  197  A    between atoms: _450  and  _451
REMARK  198  A    between atoms: _454  and  _456
REMARK  199  A    between atoms: _456  and  _457
REMARK  200  A    between atoms: _456  and  _459
REMARK  201  A    between atoms: _459  and  _460
REMARK  202  A    between atoms: _463  and  _465
REMARK  203  A    between atoms: _465  and  _466
REMARK  204  A    between atoms: _465  and  _468
REMARK  205  A    between atoms: _468  and  _469
REMARK  206  A    between atoms: _469  and  _470
REMARK  207  A    between atoms: _470  and  _471
REMARK  208  A    between atoms: _471  and  _472
REMARK  209  A    between atoms: _476  and  _478
REMARK  210  A    between atoms: _478  and  _479
REMARK  211  A    between atoms: _478  and  _481
REMARK  212  A    between atoms: _481  and  _482
REMARK  213  A    between atoms: _485  and  _487
REMARK  214  A    between atoms: _487  and  _488
REMARK  215  A    between atoms: _487  and  _490
REMARK  216  A    between atoms: _492  and  _494
REMARK  217  A    between atoms: _494  and  _495
REMARK  218  A    between atoms: _494  and  _497
REMARK  219  A    between atoms: _497  and  _498
REMARK  220  A    between atoms: _501  and  _503
REMARK  221  A    between atoms: _503  and  _504
REMARK  222  A    between atoms: _503  and  _506
REMARK  223  A    between atoms: _506  and  _507
REMARK  224  A    between atoms: _513  and  _515
REMARK  225  A    between atoms: _515  and  _516
REMARK  226  A    between atoms: _518  and  _520
REMARK  227  A    between atoms: _520  and  _521
REMARK  228  A    between atoms: _520  and  _523
REMARK  229  A    between atoms: _523  and  _524
REMARK  230  A    between atoms: _527  and  _529
REMARK  231  A    between atoms: _529  and  _530
REMARK  232  A    between atoms: _529  and  _532
REMARK  233  A    between atoms: _532  and  _533
REMARK                            x       y       z     vdW  Elec       q    Type
REMARK                         _______ _______ _______ _____ _____    ______ ____
ROOT
ATOM      1  O   HOH     1      -2.850   2.914  45.345  0.00  0.00    +0.000 OA
ENDROOT
TORSDOF 0
REMARK  Name = ../refined-set-2016/3i60/3i60_pocket.pdb
REMARK  233 active torsions:
REMARK  status: ('A' for Active; 'I' for Inactive)
REMARK    1  A    between atoms: _1  and  _3
REMARK    2  A    between atoms: _3  and  _4
REMARK    3  A    between atoms: _3  and  _6
REMARK    4  A    between atoms: _6  and  _7
REMARK    5  A    between atoms: _9  and  _11
REMARK    6  A    between atoms: _11  and  _12
REMARK    7  A    between atoms: _11  and  _14
REMARK    8  A    between atoms: _14  and  _15
REMARK    9  A    between atoms: _20  and  _21
REMARK   10  A    between atoms: _23  and  _25
REMARK   11  A    between atoms: _25  and  _26
REMARK   12  A    between atoms: _25  and  _28
REMARK   13  A    between atoms: _28  and  _29
REMARK   14  A    between atoms: _32  and  _34
REMARK   15  A    between atoms: _34  and  _35
REMARK   16  A    between atoms: _37  and  _39
REMARK   17  A    between atoms: _39  and  _40
REMARK   18  A    between atoms: _39  and  _42
REMARK   19  A    between atoms: _42  and  _43
REMARK   20  A    between atoms: _43  and  _44
REMARK   21  A    between atoms: _47  and  _49
REMARK   22  A    between atoms: _49  and  _50
REMARK   23  A    between atoms: _52  and  _54
REMARK   24  A    between atoms: _54  and  _55
REMARK   25  A    between atoms: _58  and  _60
REMARK   26  A    between atoms: _60  and  _61
REMARK   27  A    between atoms: _60  and  _63
REMARK   28  A    between atoms: _63  and  _64
REMARK   29  A    between atoms: _69  and  _70
REMARK   30  A    between atoms: _72  and  _74
REMARK   31  A    between atoms: _74  and  _75
REMARK   32  A    between atoms: _77  and  _79
REMARK   33  A    between atoms: _79  and  _80
REMARK   34  A    between atoms: _79  and  _82
REMARK   35  A    between atoms: _82  and  _83
REMARK   36  A    between atoms: _83  and  _84
REMARK   37  A    between atoms: _86  and  _88
REMARK   38  A    between atoms: _88  and  _89
REMARK   39  A    between atoms: _88  and  _91
REMARK   40  A    between atoms: _94  and  _96
REMARK   41  A    between atoms: _96  and  _97
REMARK   42  A    between atoms: _96  and  _99
REMARK   43  A    between atoms: _101  and  _103
REMARK   44  A    between atoms: _103  and  _104
REMARK   45  A    between atoms: _103  and  _106
REMARK   46  A    between atoms: _106  and  _107
REMARK   47  A    between atoms: _109  and  _111
REMARK   48  A    between atoms: _111  and  _112
REMARK   49  A    between atoms: _111  and  _114
REMARK   50  A    between atoms: _114  and  _115
REMARK   51  A    between atoms: _115  and  _116
REMARK   52  A    between atoms: _116  and  _117
REMARK   53  A    between atoms: _126  and  _128
REMARK   54  A    between atoms: _128  and  _129
REMARK   55  A    between atoms: _128  and  _131
REMARK   56  A    between atoms: _134  and  _136
REMARK   57  A    between atoms: _136  and  _137
REMARK   58  A    between atoms: _140  and  _142
REMARK   59  A    between atoms: _142  and  _143
REMARK   60  A    between atoms: _142  and  _145
REMARK   61  A    between atoms: _145  and  _146
REMARK   62  A    between atoms: _149  and  _151
REMARK   63  A    between atoms: _151  and  _152
REMARK   64  A    between atoms: _151  and  _154
REMARK   65  A    between atoms: _154  and  _155
REMARK   66  A    between atoms: _155  and  _156
REMARK   67  A    between atoms: _156  and  _157
REMARK   68  A    between atoms: _157  and  _158
REMARK   69  A    between atoms: _162  and  _164
REMARK   70  A    between atoms: _164  and  _165
REMARK   71  A    between atoms: _164  and  _167
REMARK   72  A    between atoms: _167  and  _168
REMARK   73  A    between atoms: _168  and  _169
REMARK   74  A    between atoms: _169  and  _170
REMARK   75  A    between atoms: _170  and  _171
REMARK   76  A    between atoms: _175  and  _177
REMARK   77  A    between atoms: _177  and  _178
REMARK   78  A    between atoms: _177  and  _180
REMARK   79  A    between atoms: _180  and  _181
REMARK   80  A    between atoms: _184  and  _186
REMARK   81  A    between atoms: _186  and  _187
REMARK   82  A    between atoms: _186  and  _189
REMARK   83  A    between atoms: _189  and  _190
REMARK   84  A    between atoms: _192  and  _194
REMARK   85  A    between atoms: _194  and  _195
REMARK   86  A    between atoms: _194  and  _197
REMARK   87  A    between atoms: _197  and  _198
REMARK   88  A    between atoms: _198  and  _199
REMARK   89  A    between atoms: _199  and  _200
REMARK   90  A    between atoms: _209  and  _211
REMARK   91  A    between atoms: _211  and  _212
REMARK   92  A    between atoms: _211  and  _214
REMARK   93  A    between atoms: _214  and  _215
REMARK   94  A    between atoms: _218  and  _220
REMARK   95  A    between atoms: _220  and  _221
REMARK   96  A    between atoms: _220  and  _223
REMARK   97  A    between atoms: _223  and  _224
REMARK   98  A    between atoms: _224  and  _225
REMARK   99  A    between atoms: _228  and  _230
REMARK  100  A    between atoms: _230  and  _231
REMARK  101  A    between atoms: _230  and  _233
REMARK  102  A    between atoms: _233  and  _234
REMARK  103  A    between atoms: _237  and  _239
REMARK  104  A    between atoms: _239  and  _240
REMARK  105  A    between atoms: _239  and  _242
REMARK  106  A    between atoms: _242  and  _243
REMARK  107  A    between atoms: _246  and  _248
REMARK  108  A    between atoms: _248  and  _249
REMARK  109  A    between atoms: _251  and  _253
REMARK  110  A    between atoms: _253  and  _254
REMARK  111  A    between atoms: _253  and  _256
REMARK  112  A    between atoms: _259  and  _261
REMARK  113  A    between atoms: _261  and  _262
REMARK  114  A    between atoms: _261  and  _264
REMARK  115  A    between atoms: _264  and  _265
REMARK  116  A    between atoms: _268  and  _270
REMARK  117  A    between atoms: _270  and  _271
REMARK  118  A    between atoms: _270  and  _273
REMARK  119  A    between atoms: _276  and  _278
REMARK  120  A    between atoms: _278  and  _279
REMARK  121  A    between atoms: _278  and  _281
REMARK  122  A    between atoms: _281  and  _282
REMARK  123  A    between atoms: _282  and  _283
REMARK  124  A    between atoms: _288  and  _290
REMARK  125  A    between atoms: _290  and  _291
REMARK  126  A    between atoms: _290  and  _293
REMARK  127  A    between atoms: _293  and  _294
REMARK  128  A    between atoms: _297  and  _299
REMARK  129  A    between atoms: _299  and  _300
REMARK  130  A    between atoms: _299  and  _302
REMARK  131  A    between atoms: _302  and  _303
REMARK  132  A    between atoms: _306  and  _308
REMARK  133  A    between atoms: _308  and  _309
REMARK  134  A    between atoms: _308  and  _311
REMARK  135  A    between atoms: _311  and  _312
REMARK  136  A    between atoms: _312  and  _313
REMARK  137  A    between atoms: _315  and  _317
REMARK  138  A    between atoms: _317  and  _318
REMARK  139  A    between atoms: _317  and  _320
REMARK  140  A    between atoms: _320  and  _321
REMARK  141  A    between atoms: _321  and  _322
REMARK  142  A    between atoms: _325  and  _327
REMARK  143  A    between atoms: _327  and  _328
REMARK  144  A    between atoms: _327  and  _330
REMARK  145  A    between atoms: _330  and  _331
REMARK  146  A    between atoms: _334  and  _336
REMARK  147  A    between atoms: _336  and  _337
REMARK  148  A    between atoms: _336  and  _339
REMARK  149  A    between atoms: _339  and  _340
REMARK  150  A    between atoms: _343  and  _345
REMARK  151  A    between atoms: _345  and  _346
REMARK  152  A    between atoms: _345  and  _348
REMARK  153  A    between atoms: _348  and  _349
REMARK  154  A    between atoms: _352  and  _354
REMARK  155  A    between atoms: _354  and  _355
REMARK  156  A    between atoms: _354  and  _357
REMARK  157  A    between atoms: _357  and  _358
REMARK  158  A    between atoms: _363  and  _364
REMARK  159  A    between atoms: _366  and  _368
REMARK  160  A    between atoms: _368  and  _369
REMARK  161  A    between atoms: _368  and  _371
REMARK  162  A    between atoms: _371  and  _372
REMARK  163  A    between atoms: _372  and  _373
REMARK  164  A    between atoms: _373  and  _374
REMARK  165  A    between atoms: _374  and  _375
REMARK  166  A    between atoms: _379  and  _381
REMARK  167  A    between atoms: _381  and  _382
REMARK  168  A    between atoms: _381  and  _384
REMARK  169  A    between atoms: _384  and  _385
REMARK  170  A    between atoms: _388  and  _390
REMARK  171  A    between atoms: _390  and  _391
REMARK  172  A    between atoms: _390  and  _393
REMARK  173  A    between atoms: _393  and  _394
REMARK  174  A    between atoms: _397  and  _399
REMARK  175  A    between atoms: _399  and  _400
REMARK  176  A    between atoms: _399  and  _402
REMARK  177  A    between atoms: _402  and  _403
REMARK  178  A    between atoms: _403  and  _404
REMARK  179  A    between atoms: _404  and  _405
REMARK  180  A    between atoms: _405  and  _406
REMARK  181  A    between atoms: _411  and  _412
REMARK  182  A    between atoms: _417  and  _419
REMARK  183  A    between atoms: _419  and  _420
REMARK  184  A    between atoms: _419  and  _422
REMARK  185  A    between atoms: _422  and  _423
REMARK  186  A    between atoms: _425  and  _427
REMARK  187  A    between atoms: _427  and  _428
REMARK  188  A    between atoms: _427  and  _430
REMARK  189  A    between atoms: _430  and  _431
REMARK  190  A    between atoms: _436  and  _438
REMARK  191  A    between atoms: _438  and  _439
REMARK  192  A    between atoms: _438  and  _441
REMARK  193  A    between atoms: _441  and  _442
REMARK  194  A    between atoms: _445  and  _447
REMARK  195  A    between atoms: _447  and  _448
REMARK  196  A    between atoms: _447  and  _450
REMARK  197  A    between atoms: _450  and  _451
REMARK  198  A    between atoms: _454  and  _456
REMARK  199  A    between atoms: _456  and  _457
REMARK  200  A    between atoms: _456  and  _459
REMARK  201  A    between atoms: _459  and  _460
REMARK  202  A    between atoms: _463  and  _465
REMARK  203  A    between atoms: _465  and  _466
REMARK  204  A    between atoms: _465  and  _468
REMARK  205  A    between atoms: _468  and  _469
REMARK  206  A    between atoms: _469  and  _470
REMARK  207  A    between atoms: _470  and  _471
REMARK  208  A    between atoms: _471  and  _472
REMARK  209  A    between atoms: _476  and  _478
REMARK  210  A    between atoms: _478  and  _479
REMARK  211  A    between atoms: _478  and  _481
REMARK  212  A    between atoms: _481  and  _482
REMARK  213  A    between atoms: _485  and  _487
REMARK  214  A    between atoms: _487  and  _488
REMARK  215  A    between atoms: _487  and  _490
REMARK  216  A    between atoms: _492  and  _494
REMARK  217  A    between atoms: _494  and  _495
REMARK  218  A    between atoms: _494  and  _497
REMARK  219  A    between atoms: _497  and  _498
REMARK  220  A    between atoms: _501  and  _503
REMARK  221  A    between atoms: _503  and  _504
REMARK  222  A    between atoms: _503  and  _506
REMARK  223  A    between atoms: _506  and  _507
REMARK  224  A    between atoms: _513  and  _515
REMARK  225  A    between atoms: _515  and  _516
REMARK  226  A    between atoms: _518  and  _520
REMARK  227  A    between atoms: _520  and  _521
REMARK  228  A    between atoms: _520  and  _523
REMARK  229  A    between atoms: _523  and  _524
REMARK  230  A    between atoms: _527  and  _529
REMARK  231  A    between atoms: _529  and  _530
REMARK  232  A    between atoms: _529  and  _532
REMARK  233  A    between atoms: _532  and  _533
REMARK                            x       y       z     vdW  Elec       q    Type
REMARK                         _______ _______ _______ _____ _____    ______ ____
ROOT
ATOM      1  O   HOH     1       5.968   6.676  49.743  0.00  0.00    +0.000 OA
ENDROOT
TORSDOF 0
REMARK  Name = ../refined-set-2016/3i60/3i60_pocket.pdb
REMARK  233 active torsions:
REMARK  status: ('A' for Active; 'I' for Inactive)
REMARK    1  A    between atoms: _1  and  _3
REMARK    2  A    between atoms: _3  and  _4
REMARK    3  A    between atoms: _3  and  _6
REMARK    4  A    between atoms: _6  and  _7
REMARK    5  A    between atoms: _9  and  _11
REMARK    6  A    between atoms: _11  and  _12
REMARK    7  A    between atoms: _11  and  _14
REMARK    8  A    between atoms: _14  and  _15
REMARK    9  A    between atoms: _20  and  _21
REMARK   10  A    between atoms: _23  and  _25
REMARK   11  A    between atoms: _25  and  _26
REMARK   12  A    between atoms: _25  and  _28
REMARK   13  A    between atoms: _28  and  _29
REMARK   14  A    between atoms: _32  and  _34
REMARK   15  A    between atoms: _34  and  _35
REMARK   16  A    between atoms: _37  and  _39
REMARK   17  A    between atoms: _39  and  _40
REMARK   18  A    between atoms: _39  and  _42
REMARK   19  A    between atoms: _42  and  _43
REMARK   20  A    between atoms: _43  and  _44
REMARK   21  A    between atoms: _47  and  _49
REMARK   22  A    between atoms: _49  and  _50
REMARK   23  A    between atoms: _52  and  _54
REMARK   24  A    between atoms: _54  and  _55
REMARK   25  A    between atoms: _58  and  _60
REMARK   26  A    between atoms: _60  and  _61
REMARK   27  A    between atoms: _60  and  _63
REMARK   28  A    between atoms: _63  and  _64
REMARK   29  A    between atoms: _69  and  _70
REMARK   30  A    between atoms: _72  and  _74
REMARK   31  A    between atoms: _74  and  _75
REMARK   32  A    between atoms: _77  and  _79
REMARK   33  A    between atoms: _79  and  _80
REMARK   34  A    between atoms: _79  and  _82
REMARK   35  A    between atoms: _82  and  _83
REMARK   36  A    between atoms: _83  and  _84
REMARK   37  A    between atoms: _86  and  _88
REMARK   38  A    between atoms: _88  and  _89
REMARK   39  A    between atoms: _88  and  _91
REMARK   40  A    between atoms: _94  and  _96
REMARK   41  A    between atoms: _96  and  _97
REMARK   42  A    between atoms: _96  and  _99
REMARK   43  A    between atoms: _101  and  _103
REMARK   44  A    between atoms: _103  and  _104
REMARK   45  A    between atoms: _103  and  _106
REMARK   46  A    between atoms: _106  and  _107
REMARK   47  A    between atoms: _109  and  _111
REMARK   48  A    between atoms: _111  and  _112
REMARK   49  A    between atoms: _111  and  _114
REMARK   50  A    between atoms: _114  and  _115
REMARK   51  A    between atoms: _115  and  _116
REMARK   52  A    between atoms: _116  and  _117
REMARK   53  A    between atoms: _126  and  _128
REMARK   54  A    between atoms: _128  and  _129
REMARK   55  A    between atoms: _128  and  _131
REMARK   56  A    between atoms: _134  and  _136
REMARK   57  A    between atoms: _136  and  _137
REMARK   58  A    between atoms: _140  and  _142
REMARK   59  A    between atoms: _142  and  _143
REMARK   60  A    between atoms: _142  and  _145
REMARK   61  A    between atoms: _145  and  _146
REMARK   62  A    between atoms: _149  and  _151
REMARK   63  A    between atoms: _151  and  _152
REMARK   64  A    between atoms: _151  and  _154
REMARK   65  A    between atoms: _154  and  _155
REMARK   66  A    between atoms: _155  and  _156
REMARK   67  A    between atoms: _156  and  _157
REMARK   68  A    between atoms: _157  and  _158
REMARK   69  A    between atoms: _162  and  _164
REMARK   70  A    between atoms: _164  and  _165
REMARK   71  A    between atoms: _164  and  _167
REMARK   72  A    between atoms: _167  and  _168
REMARK   73  A    between atoms: _168  and  _169
REMARK   74  A    between atoms: _169  and  _170
REMARK   75  A    between atoms: _170  and  _171
REMARK   76  A    between atoms: _175  and  _177
REMARK   77  A    between atoms: _177  and  _178
REMARK   78  A    between atoms: _177  and  _180
REMARK   79  A    between atoms: _180  and  _181
REMARK   80  A    between atoms: _184  and  _186
REMARK   81  A    between atoms: _186  and  _187
REMARK   82  A    between atoms: _186  and  _189
REMARK   83  A    between atoms: _189  and  _190
REMARK   84  A    between atoms: _192  and  _194
REMARK   85  A    between atoms: _194  and  _195
REMARK   86  A    between atoms: _194  and  _197
REMARK   87  A    between atoms: _197  and  _198
REMARK   88  A    between atoms: _198  and  _199
REMARK   89  A    between atoms: _199  and  _200
REMARK   90  A    between atoms: _209  and  _211
REMARK   91  A    between atoms: _211  and  _212
REMARK   92  A    between atoms: _211  and  _214
REMARK   93  A    between atoms: _214  and  _215
REMARK   94  A    between atoms: _218  and  _220
REMARK   95  A    between atoms: _220  and  _221
REMARK   96  A    between atoms: _220  and  _223
REMARK   97  A    between atoms: _223  and  _224
REMARK   98  A    between atoms: _224  and  _225
REMARK   99  A    between atoms: _228  and  _230
REMARK  100  A    between atoms: _230  and  _231
REMARK  101  A    between atoms: _230  and  _233
REMARK  102  A    between atoms: _233  and  _234
REMARK  103  A    between atoms: _237  and  _239
REMARK  104  A    between atoms: _239  and  _240
REMARK  105  A    between atoms: _239  and  _242
REMARK  106  A    between atoms: _242  and  _243
REMARK  107  A    between atoms: _246  and  _248
REMARK  108  A    between atoms: _248  and  _249
REMARK  109  A    between atoms: _251  and  _253
REMARK  110  A    between atoms: _253  and  _254
REMARK  111  A    between atoms: _253  and  _256
REMARK  112  A    between atoms: _259  and  _261
REMARK  113  A    between atoms: _261  and  _262
REMARK  114  A    between atoms: _261  and  _264
REMARK  115  A    between atoms: _264  and  _265
REMARK  116  A    between atoms: _268  and  _270
REMARK  117  A    between atoms: _270  and  _271
REMARK  118  A    between atoms: _270  and  _273
REMARK  119  A    between atoms: _276  and  _278
REMARK  120  A    between atoms: _278  and  _279
REMARK  121  A    between atoms: _278  and  _281
REMARK  122  A    between atoms: _281  and  _282
REMARK  123  A    between atoms: _282  and  _283
REMARK  124  A    between atoms: _288  and  _290
REMARK  125  A    between atoms: _290  and  _291
REMARK  126  A    between atoms: _290  and  _293
REMARK  127  A    between atoms: _293  and  _294
REMARK  128  A    between atoms: _297  and  _299
REMARK  129  A    between atoms: _299  and  _300
REMARK  130  A    between atoms: _299  and  _302
REMARK  131  A    between atoms: _302  and  _303
REMARK  132  A    between atoms: _306  and  _308
REMARK  133  A    between atoms: _308  and  _309
REMARK  134  A    between atoms: _308  and  _311
REMARK  135  A    between atoms: _311  and  _312
REMARK  136  A    between atoms: _312  and  _313
REMARK  137  A    between atoms: _315  and  _317
REMARK  138  A    between atoms: _317  and  _318
REMARK  139  A    between atoms: _317  and  _320
REMARK  140  A    between atoms: _320  and  _321
REMARK  141  A    between atoms: _321  and  _322
REMARK  142  A    between atoms: _325  and  _327
REMARK  143  A    between atoms: _327  and  _328
REMARK  144  A    between atoms: _327  and  _330
REMARK  145  A    between atoms: _330  and  _331
REMARK  146  A    between atoms: _334  and  _336
REMARK  147  A    between atoms: _336  and  _337
REMARK  148  A    between atoms: _336  and  _339
REMARK  149  A    between atoms: _339  and  _340
REMARK  150  A    between atoms: _343  and  _345
REMARK  151  A    between atoms: _345  and  _346
REMARK  152  A    between atoms: _345  and  _348
REMARK  153  A    between atoms: _348  and  _349
REMARK  154  A    between atoms: _352  and  _354
REMARK  155  A    between atoms: _354  and  _355
REMARK  156  A    between atoms: _354  and  _357
REMARK  157  A    between atoms: _357  and  _358
REMARK  158  A    between atoms: _363  and  _364
REMARK  159  A    between atoms: _366  and  _368
REMARK  160  A    between atoms: _368  and  _369
REMARK  161  A    between atoms: _368  and  _371
REMARK  162  A    between atoms: _371  and  _372
REMARK  163  A    between atoms: _372  and  _373
REMARK  164  A    between atoms: _373  and  _374
REMARK  165  A    between atoms: _374  and  _375
REMARK  166  A    between atoms: _379  and  _381
REMARK  167  A    between atoms: _381  and  _382
REMARK  168  A    between atoms: _381  and  _384
REMARK  169  A    between atoms: _384  and  _385
REMARK  170  A    between atoms: _388  and  _390
REMARK  171  A    between atoms: _390  and  _391
REMARK  172  A    between atoms: _390  and  _393
REMARK  173  A    between atoms: _393  and  _394
REMARK  174  A    between atoms: _397  and  _399
REMARK  175  A    between atoms: _399  and  _400
REMARK  176  A    between atoms: _399  and  _402
REMARK  177  A    between atoms: _402  and  _403
REMARK  178  A    between atoms: _403  and  _404
REMARK  179  A    between atoms: _404  and  _405
REMARK  180  A    between atoms: _405  and  _406
REMARK  181  A    between atoms: _411  and  _412
REMARK  182  A    between atoms: _417  and  _419
REMARK  183  A    between atoms: _419  and  _420
REMARK  184  A    between atoms: _419  and  _422
REMARK  185  A    between atoms: _422  and  _423
REMARK  186  A    between atoms: _425  and  _427
REMARK  187  A    between atoms: _427  and  _428
REMARK  188  A    between atoms: _427  and  _430
REMARK  189  A    between atoms: _430  and  _431
REMARK  190  A    between atoms: _436  and  _438
REMARK  191  A    between atoms: _438  and  _439
REMARK  192  A    between atoms: _438  and  _441
REMARK  193  A    between atoms: _441  and  _442
REMARK  194  A    between atoms: _445  and  _447
REMARK  195  A    between atoms: _447  and  _448
REMARK  196  A    between atoms: _447  and  _450
REMARK  197  A    between atoms: _450  and  _451
REMARK  198  A    between atoms: _454  and  _456
REMARK  199  A    between atoms: _456  and  _457
REMARK  200  A    between atoms: _456  and  _459
REMARK  201  A    between atoms: _459  and  _460
REMARK  202  A    between atoms: _463  and  _465
REMARK  203  A    between atoms: _465  and  _466
REMARK  204  A    between atoms: _465  and  _468
REMARK  205  A    between atoms: _468  and  _469
REMARK  206  A    between atoms: _469  and  _470
REMARK  207  A    between atoms: _470  and  _471
REMARK  208  A    between atoms: _471  and  _472
REMARK  209  A    between atoms: _476  and  _478
REMARK  210  A    between atoms: _478  and  _479
REMARK  211  A    between atoms: _478  and  _481
REMARK  212  A    between atoms: _481  and  _482
REMARK  213  A    between atoms: _485  and  _487
REMARK  214  A    between atoms: _487  and  _488
REMARK  215  A    between atoms: _487  and  _490
REMARK  216  A    between atoms: _492  and  _494
REMARK  217  A    between atoms: _494  and  _495
REMARK  218  A    between atoms: _494  and  _497
REMARK  219  A    between atoms: _497  and  _498
REMARK  220  A    between atoms: _501  and  _503
REMARK  221  A    between atoms: _503  and  _504
REMARK  222  A    between atoms: _503  and  _506
REMARK  223  A    between atoms: _506  and  _507
REMARK  224  A    between atoms: _513  and  _515
REMARK  225  A    between atoms: _515  and  _516
REMARK  226  A    between atoms: _518  and  _520
REMARK  227  A    between atoms: _520  and  _521
REMARK  228  A    between atoms: _520  and  _523
REMARK  229  A    between atoms: _523  and  _524
REMARK  230  A    between atoms: _527  and  _529
REMARK  231  A    between atoms: _529  and  _530
REMARK  232  A    between atoms: _529  and  _532
REMARK  233  A    between atoms: _532  and  _533
REMARK                            x       y       z     vdW  Elec       q    Type
REMARK                         _______ _______ _______ _____ _____    ______ ____
ROOT
ATOM      1  O   HOH     1       6.428   4.295  51.916  0.00  0.00    +0.000 OA
ENDROOT
TORSDOF 0
REMARK  Name = ../refined-set-2016/3i60/3i60_pocket.pdb
REMARK  233 active torsions:
REMARK  status: ('A' for Active; 'I' for Inactive)
REMARK    1  A    between atoms: _1  and  _3
REMARK    2  A    between atoms: _3  and  _4
REMARK    3  A    between atoms: _3  and  _6
REMARK    4  A    between atoms: _6  and  _7
REMARK    5  A    between atoms: _9  and  _11
REMARK    6  A    between atoms: _11  and  _12
REMARK    7  A    between atoms: _11  and  _14
REMARK    8  A    between atoms: _14  and  _15
REMARK    9  A    between atoms: _20  and  _21
REMARK   10  A    between atoms: _23  and  _25
REMARK   11  A    between atoms: _25  and  _26
REMARK   12  A    between atoms: _25  and  _28
REMARK   13  A    between atoms: _28  and  _29
REMARK   14  A    between atoms: _32  and  _34
REMARK   15  A    between atoms: _34  and  _35
REMARK   16  A    between atoms: _37  and  _39
REMARK   17  A    between atoms: _39  and  _40
REMARK   18  A    between atoms: _39  and  _42
REMARK   19  A    between atoms: _42  and  _43
REMARK   20  A    between atoms: _43  and  _44
REMARK   21  A    between atoms: _47  and  _49
REMARK   22  A    between atoms: _49  and  _50
REMARK   23  A    between atoms: _52  and  _54
REMARK   24  A    between atoms: _54  and  _55
REMARK   25  A    between atoms: _58  and  _60
REMARK   26  A    between atoms: _60  and  _61
REMARK   27  A    between atoms: _60  and  _63
REMARK   28  A    between atoms: _63  and  _64
REMARK   29  A    between atoms: _69  and  _70
REMARK   30  A    between atoms: _72  and  _74
REMARK   31  A    between atoms: _74  and  _75
REMARK   32  A    between atoms: _77  and  _79
REMARK   33  A    between atoms: _79  and  _80
REMARK   34  A    between atoms: _79  and  _82
REMARK   35  A    between atoms: _82  and  _83
REMARK   36  A    between atoms: _83  and  _84
REMARK   37  A    between atoms: _86  and  _88
REMARK   38  A    between atoms: _88  and  _89
REMARK   39  A    between atoms: _88  and  _91
REMARK   40  A    between atoms: _94  and  _96
REMARK   41  A    between atoms: _96  and  _97
REMARK   42  A    between atoms: _96  and  _99
REMARK   43  A    between atoms: _101  and  _103
REMARK   44  A    between atoms: _103  and  _104
REMARK   45  A    between atoms: _103  and  _106
REMARK   46  A    between atoms: _106  and  _107
REMARK   47  A    between atoms: _109  and  _111
REMARK   48  A    between atoms: _111  and  _112
REMARK   49  A    between atoms: _111  and  _114
REMARK   50  A    between atoms: _114  and  _115
REMARK   51  A    between atoms: _115  and  _116
REMARK   52  A    between atoms: _116  and  _117
REMARK   53  A    between atoms: _126  and  _128
REMARK   54  A    between atoms: _128  and  _129
REMARK   55  A    between atoms: _128  and  _131
REMARK   56  A    between atoms: _134  and  _136
REMARK   57  A    between atoms: _136  and  _137
REMARK   58  A    between atoms: _140  and  _142
REMARK   59  A    between atoms: _142  and  _143
REMARK   60  A    between atoms: _142  and  _145
REMARK   61  A    between atoms: _145  and  _146
REMARK   62  A    between atoms: _149  and  _151
REMARK   63  A    between atoms: _151  and  _152
REMARK   64  A    between atoms: _151  and  _154
REMARK   65  A    between atoms: _154  and  _155
REMARK   66  A    between atoms: _155  and  _156
REMARK   67  A    between atoms: _156  and  _157
REMARK   68  A    between atoms: _157  and  _158
REMARK   69  A    between atoms: _162  and  _164
REMARK   70  A    between atoms: _164  and  _165
REMARK   71  A    between atoms: _164  and  _167
REMARK   72  A    between atoms: _167  and  _168
REMARK   73  A    between atoms: _168  and  _169
REMARK   74  A    between atoms: _169  and  _170
REMARK   75  A    between atoms: _170  and  _171
REMARK   76  A    between atoms: _175  and  _177
REMARK   77  A    between atoms: _177  and  _178
REMARK   78  A    between atoms: _177  and  _180
REMARK   79  A    between atoms: _180  and  _181
REMARK   80  A    between atoms: _184  and  _186
REMARK   81  A    between atoms: _186  and  _187
REMARK   82  A    between atoms: _186  and  _189
REMARK   83  A    between atoms: _189  and  _190
REMARK   84  A    between atoms: _192  and  _194
REMARK   85  A    between atoms: _194  and  _195
REMARK   86  A    between atoms: _194  and  _197
REMARK   87  A    between atoms: _197  and  _198
REMARK   88  A    between atoms: _198  and  _199
REMARK   89  A    between atoms: _199  and  _200
REMARK   90  A    between atoms: _209  and  _211
REMARK   91  A    between atoms: _211  and  _212
REMARK   92  A    between atoms: _211  and  _214
REMARK   93  A    between atoms: _214  and  _215
REMARK   94  A    between atoms: _218  and  _220
REMARK   95  A    between atoms: _220  and  _221
REMARK   96  A    between atoms: _220  and  _223
REMARK   97  A    between atoms: _223  and  _224
REMARK   98  A    between atoms: _224  and  _225
REMARK   99  A    between atoms: _228  and  _230
REMARK  100  A    between atoms: _230  and  _231
REMARK  101  A    between atoms: _230  and  _233
REMARK  102  A    between atoms: _233  and  _234
REMARK  103  A    between atoms: _237  and  _239
REMARK  104  A    between atoms: _239  and  _240
REMARK  105  A    between atoms: _239  and  _242
REMARK  106  A    between atoms: _242  and  _243
REMARK  107  A    between atoms: _246  and  _248
REMARK  108  A    between atoms: _248  and  _249
REMARK  109  A    between atoms: _251  and  _253
REMARK  110  A    between atoms: _253  and  _254
REMARK  111  A    between atoms: _253  and  _256
REMARK  112  A    between atoms: _259  and  _261
REMARK  113  A    between atoms: _261  and  _262
REMARK  114  A    between atoms: _261  and  _264
REMARK  115  A    between atoms: _264  and  _265
REMARK  116  A    between atoms: _268  and  _270
REMARK  117  A    between atoms: _270  and  _271
REMARK  118  A    between atoms: _270  and  _273
REMARK  119  A    between atoms: _276  and  _278
REMARK  120  A    between atoms: _278  and  _279
REMARK  121  A    between atoms: _278  and  _281
REMARK  122  A    between atoms: _281  and  _282
REMARK  123  A    between atoms: _282  and  _283
REMARK  124  A    between atoms: _288  and  _290
REMARK  125  A    between atoms: _290  and  _291
REMARK  126  A    between atoms: _290  and  _293
REMARK  127  A    between atoms: _293  and  _294
REMARK  128  A    between atoms: _297  and  _299
REMARK  129  A    between atoms: _299  and  _300
REMARK  130  A    between atoms: _299  and  _302
REMARK  131  A    between atoms: _302  and  _303
REMARK  132  A    between atoms: _306  and  _308
REMARK  133  A    between atoms: _308  and  _309
REMARK  134  A    between atoms: _308  and  _311
REMARK  135  A    between atoms: _311  and  _312
REMARK  136  A    between atoms: _312  and  _313
REMARK  137  A    between atoms: _315  and  _317
REMARK  138  A    between atoms: _317  and  _318
REMARK  139  A    between atoms: _317  and  _320
REMARK  140  A    between atoms: _320  and  _321
REMARK  141  A    between atoms: _321  and  _322
REMARK  142  A    between atoms: _325  and  _327
REMARK  143  A    between atoms: _327  and  _328
REMARK  144  A    between atoms: _327  and  _330
REMARK  145  A    between atoms: _330  and  _331
REMARK  146  A    between atoms: _334  and  _336
REMARK  147  A    between atoms: _336  and  _337
REMARK  148  A    between atoms: _336  and  _339
REMARK  149  A    between atoms: _339  and  _340
REMARK  150  A    between atoms: _343  and  _345
REMARK  151  A    between atoms: _345  and  _346
REMARK  152  A    between atoms: _345  and  _348
REMARK  153  A    between atoms: _348  and  _349
REMARK  154  A    between atoms: _352  and  _354
REMARK  155  A    between atoms: _354  and  _355
REMARK  156  A    between atoms: _354  and  _357
REMARK  157  A    between atoms: _357  and  _358
REMARK  158  A    between atoms: _363  and  _364
REMARK  159  A    between atoms: _366  and  _368
REMARK  160  A    between atoms: _368  and  _369
REMARK  161  A    between atoms: _368  and  _371
REMARK  162  A    between atoms: _371  and  _372
REMARK  163  A    between atoms: _372  and  _373
REMARK  164  A    between atoms: _373  and  _374
REMARK  165  A    between atoms: _374  and  _375
REMARK  166  A    between atoms: _379  and  _381
REMARK  167  A    between atoms: _381  and  _382
REMARK  168  A    between atoms: _381  and  _384
REMARK  169  A    between atoms: _384  and  _385
REMARK  170  A    between atoms: _388  and  _390
REMARK  171  A    between atoms: _390  and  _391
REMARK  172  A    between atoms: _390  and  _393
REMARK  173  A    between atoms: _393  and  _394
REMARK  174  A    between atoms: _397  and  _399
REMARK  175  A    between atoms: _399  and  _400
REMARK  176  A    between atoms: _399  and  _402
REMARK  177  A    between atoms: _402  and  _403
REMARK  178  A    between atoms: _403  and  _404
REMARK  179  A    between atoms: _404  and  _405
REMARK  180  A    between atoms: _405  and  _406
REMARK  181  A    between atoms: _411  and  _412
REMARK  182  A    between atoms: _417  and  _419
REMARK  183  A    between atoms: _419  and  _420
REMARK  184  A    between atoms: _419  and  _422
REMARK  185  A    between atoms: _422  and  _423
REMARK  186  A    between atoms: _425  and  _427
REMARK  187  A    between atoms: _427  and  _428
REMARK  188  A    between atoms: _427  and  _430
REMARK  189  A    between atoms: _430  and  _431
REMARK  190  A    between atoms: _436  and  _438
REMARK  191  A    between atoms: _438  and  _439
REMARK  192  A    between atoms: _438  and  _441
REMARK  193  A    between atoms: _441  and  _442
REMARK  194  A    between atoms: _445  and  _447
REMARK  195  A    between atoms: _447  and  _448
REMARK  196  A    between atoms: _447  and  _450
REMARK  197  A    between atoms: _450  and  _451
REMARK  198  A    between atoms: _454  and  _456
REMARK  199  A    between atoms: _456  and  _457
REMARK  200  A    between atoms: _456  and  _459
REMARK  201  A    between atoms: _459  and  _460
REMARK  202  A    between atoms: _463  and  _465
REMARK  203  A    between atoms: _465  and  _466
REMARK  204  A    between atoms: _465  and  _468
REMARK  205  A    between atoms: _468  and  _469
REMARK  206  A    between atoms: _469  and  _470
REMARK  207  A    between atoms: _470  and  _471
REMARK  208  A    between atoms: _471  and  _472
REMARK  209  A    between atoms: _476  and  _478
REMARK  210  A    between atoms: _478  and  _479
REMARK  211  A    between atoms: _478  and  _481
REMARK  212  A    between atoms: _481  and  _482
REMARK  213  A    between atoms: _485  and  _487
REMARK  214  A    between atoms: _487  and  _488
REMARK  215  A    between atoms: _487  and  _490
REMARK  216  A    between atoms: _492  and  _494
REMARK  217  A    between atoms: _494  and  _495
REMARK  218  A    between atoms: _494  and  _497
REMARK  219  A    between atoms: _497  and  _498
REMARK  220  A    between atoms: _501  and  _503
REMARK  221  A    between atoms: _503  and  _504
REMARK  222  A    between atoms: _503  and  _506
REMARK  223  A    between atoms: _506  and  _507
REMARK  224  A    between atoms: _513  and  _515
REMARK  225  A    between atoms: _515  and  _516
REMARK  226  A    between atoms: _518  and  _520
REMARK  227  A    between atoms: _520  and  _521
REMARK  228  A    between atoms: _520  and  _523
REMARK  229  A    between atoms: _523  and  _524
REMARK  230  A    between atoms: _527  and  _529
REMARK  231  A    between atoms: _529  and  _530
REMARK  232  A    between atoms: _529  and  _532
REMARK  233  A    between atoms: _532  and  _533
REMARK                            x       y       z     vdW  Elec       q    Type
REMARK                         _______ _______ _______ _____ _____    ______ ____
ROOT
ATOM      1  O   HOH     1      16.524  -7.262  42.219  0.00  0.00    +0.000 OA
ENDROOT
TORSDOF 0
REMARK  Name = ../refined-set-2016/3i60/3i60_pocket.pdb
REMARK  233 active torsions:
REMARK  status: ('A' for Active; 'I' for Inactive)
REMARK    1  A    between atoms: _1  and  _3
REMARK    2  A    between atoms: _3  and  _4
REMARK    3  A    between atoms: _3  and  _6
REMARK    4  A    between atoms: _6  and  _7
REMARK    5  A    between atoms: _9  and  _11
REMARK    6  A    between atoms: _11  and  _12
REMARK    7  A    between atoms: _11  and  _14
REMARK    8  A    between atoms: _14  and  _15
REMARK    9  A    between atoms: _20  and  _21
REMARK   10  A    between atoms: _23  and  _25
REMARK   11  A    between atoms: _25  and  _26
REMARK   12  A    between atoms: _25  and  _28
REMARK   13  A    between atoms: _28  and  _29
REMARK   14  A    between atoms: _32  and  _34
REMARK   15  A    between atoms: _34  and  _35
REMARK   16  A    between atoms: _37  and  _39
REMARK   17  A    between atoms: _39  and  _40
REMARK   18  A    between atoms: _39  and  _42
REMARK   19  A    between atoms: _42  and  _43
REMARK   20  A    between atoms: _43  and  _44
REMARK   21  A    between atoms: _47  and  _49
REMARK   22  A    between atoms: _49  and  _50
REMARK   23  A    between atoms: _52  and  _54
REMARK   24  A    between atoms: _54  and  _55
REMARK   25  A    between atoms: _58  and  _60
REMARK   26  A    between atoms: _60  and  _61
REMARK   27  A    between atoms: _60  and  _63
REMARK   28  A    between atoms: _63  and  _64
REMARK   29  A    between atoms: _69  and  _70
REMARK   30  A    between atoms: _72  and  _74
REMARK   31  A    between atoms: _74  and  _75
REMARK   32  A    between atoms: _77  and  _79
REMARK   33  A    between atoms: _79  and  _80
REMARK   34  A    between atoms: _79  and  _82
REMARK   35  A    between atoms: _82  and  _83
REMARK   36  A    between atoms: _83  and  _84
REMARK   37  A    between atoms: _86  and  _88
REMARK   38  A    between atoms: _88  and  _89
REMARK   39  A    between atoms: _88  and  _91
REMARK   40  A    between atoms: _94  and  _96
REMARK   41  A    between atoms: _96  and  _97
REMARK   42  A    between atoms: _96  and  _99
REMARK   43  A    between atoms: _101  and  _103
REMARK   44  A    between atoms: _103  and  _104
REMARK   45  A    between atoms: _103  and  _106
REMARK   46  A    between atoms: _106  and  _107
REMARK   47  A    between atoms: _109  and  _111
REMARK   48  A    between atoms: _111  and  _112
REMARK   49  A    between atoms: _111  and  _114
REMARK   50  A    between atoms: _114  and  _115
REMARK   51  A    between atoms: _115  and  _116
REMARK   52  A    between atoms: _116  and  _117
REMARK   53  A    between atoms: _126  and  _128
REMARK   54  A    between atoms: _128  and  _129
REMARK   55  A    between atoms: _128  and  _131
REMARK   56  A    between atoms: _134  and  _136
REMARK   57  A    between atoms: _136  and  _137
REMARK   58  A    between atoms: _140  and  _142
REMARK   59  A    between atoms: _142  and  _143
REMARK   60  A    between atoms: _142  and  _145
REMARK   61  A    between atoms: _145  and  _146
REMARK   62  A    between atoms: _149  and  _151
REMARK   63  A    between atoms: _151  and  _152
REMARK   64  A    between atoms: _151  and  _154
REMARK   65  A    between atoms: _154  and  _155
REMARK   66  A    between atoms: _155  and  _156
REMARK   67  A    between atoms: _156  and  _157
REMARK   68  A    between atoms: _157  and  _158
REMARK   69  A    between atoms: _162  and  _164
REMARK   70  A    between atoms: _164  and  _165
REMARK   71  A    between atoms: _164  and  _167
REMARK   72  A    between atoms: _167  and  _168
REMARK   73  A    between atoms: _168  and  _169
REMARK   74  A    between atoms: _169  and  _170
REMARK   75  A    between atoms: _170  and  _171
REMARK   76  A    between atoms: _175  and  _177
REMARK   77  A    between atoms: _177  and  _178
REMARK   78  A    between atoms: _177  and  _180
REMARK   79  A    between atoms: _180  and  _181
REMARK   80  A    between atoms: _184  and  _186
REMARK   81  A    between atoms: _186  and  _187
REMARK   82  A    between atoms: _186  and  _189
REMARK   83  A    between atoms: _189  and  _190
REMARK   84  A    between atoms: _192  and  _194
REMARK   85  A    between atoms: _194  and  _195
REMARK   86  A    between atoms: _194  and  _197
REMARK   87  A    between atoms: _197  and  _198
REMARK   88  A    between atoms: _198  and  _199
REMARK   89  A    between atoms: _199  and  _200
REMARK   90  A    between atoms: _209  and  _211
REMARK   91  A    between atoms: _211  and  _212
REMARK   92  A    between atoms: _211  and  _214
REMARK   93  A    between atoms: _214  and  _215
REMARK   94  A    between atoms: _218  and  _220
REMARK   95  A    between atoms: _220  and  _221
REMARK   96  A    between atoms: _220  and  _223
REMARK   97  A    between atoms: _223  and  _224
REMARK   98  A    between atoms: _224  and  _225
REMARK   99  A    between atoms: _228  and  _230
REMARK  100  A    between atoms: _230  and  _231
REMARK  101  A    between atoms: _230  and  _233
REMARK  102  A    between atoms: _233  and  _234
REMARK  103  A    between atoms: _237  and  _239
REMARK  104  A    between atoms: _239  and  _240
REMARK  105  A    between atoms: _239  and  _242
REMARK  106  A    between atoms: _242  and  _243
REMARK  107  A    between atoms: _246  and  _248
REMARK  108  A    between atoms: _248  and  _249
REMARK  109  A    between atoms: _251  and  _253
REMARK  110  A    between atoms: _253  and  _254
REMARK  111  A    between atoms: _253  and  _256
REMARK  112  A    between atoms: _259  and  _261
REMARK  113  A    between atoms: _261  and  _262
REMARK  114  A    between atoms: _261  and  _264
REMARK  115  A    between atoms: _264  and  _265
REMARK  116  A    between atoms: _268  and  _270
REMARK  117  A    between atoms: _270  and  _271
REMARK  118  A    between atoms: _270  and  _273
REMARK  119  A    between atoms: _276  and  _278
REMARK  120  A    between atoms: _278  and  _279
REMARK  121  A    between atoms: _278  and  _281
REMARK  122  A    between atoms: _281  and  _282
REMARK  123  A    between atoms: _282  and  _283
REMARK  124  A    between atoms: _288  and  _290
REMARK  125  A    between atoms: _290  and  _291
REMARK  126  A    between atoms: _290  and  _293
REMARK  127  A    between atoms: _293  and  _294
REMARK  128  A    between atoms: _297  and  _299
REMARK  129  A    between atoms: _299  and  _300
REMARK  130  A    between atoms: _299  and  _302
REMARK  131  A    between atoms: _302  and  _303
REMARK  132  A    between atoms: _306  and  _308
REMARK  133  A    between atoms: _308  and  _309
REMARK  134  A    between atoms: _308  and  _311
REMARK  135  A    between atoms: _311  and  _312
REMARK  136  A    between atoms: _312  and  _313
REMARK  137  A    between atoms: _315  and  _317
REMARK  138  A    between atoms: _317  and  _318
REMARK  139  A    between atoms: _317  and  _320
REMARK  140  A    between atoms: _320  and  _321
REMARK  141  A    between atoms: _321  and  _322
REMARK  142  A    between atoms: _325  and  _327
REMARK  143  A    between atoms: _327  and  _328
REMARK  144  A    between atoms: _327  and  _330
REMARK  145  A    between atoms: _330  and  _331
REMARK  146  A    between atoms: _334  and  _336
REMARK  147  A    between atoms: _336  and  _337
REMARK  148  A    between atoms: _336  and  _339
REMARK  149  A    between atoms: _339  and  _340
REMARK  150  A    between atoms: _343  and  _345
REMARK  151  A    between atoms: _345  and  _346
REMARK  152  A    between atoms: _345  and  _348
REMARK  153  A    between atoms: _348  and  _349
REMARK  154  A    between atoms: _352  and  _354
REMARK  155  A    between atoms: _354  and  _355
REMARK  156  A    between atoms: _354  and  _357
REMARK  157  A    between atoms: _357  and  _358
REMARK  158  A    between atoms: _363  and  _364
REMARK  159  A    between atoms: _366  and  _368
REMARK  160  A    between atoms: _368  and  _369
REMARK  161  A    between atoms: _368  and  _371
REMARK  162  A    between atoms: _371  and  _372
REMARK  163  A    between atoms: _372  and  _373
REMARK  164  A    between atoms: _373  and  _374
REMARK  165  A    between atoms: _374  and  _375
REMARK  166  A    between atoms: _379  and  _381
REMARK  167  A    between atoms: _381  and  _382
REMARK  168  A    between atoms: _381  and  _384
REMARK  169  A    between atoms: _384  and  _385
REMARK  170  A    between atoms: _388  and  _390
REMARK  171  A    between atoms: _390  and  _391
REMARK  172  A    between atoms: _390  and  _393
REMARK  173  A    between atoms: _393  and  _394
REMARK  174  A    between atoms: _397  and  _399
REMARK  175  A    between atoms: _399  and  _400
REMARK  176  A    between atoms: _399  and  _402
REMARK  177  A    between atoms: _402  and  _403
REMARK  178  A    between atoms: _403  and  _404
REMARK  179  A    between atoms: _404  and  _405
REMARK  180  A    between atoms: _405  and  _406
REMARK  181  A    between atoms: _411  and  _412
REMARK  182  A    between atoms: _417  and  _419
REMARK  183  A    between atoms: _419  and  _420
REMARK  184  A    between atoms: _419  and  _422
REMARK  185  A    between atoms: _422  and  _423
REMARK  186  A    between atoms: _425  and  _427
REMARK  187  A    between atoms: _427  and  _428
REMARK  188  A    between atoms: _427  and  _430
REMARK  189  A    between atoms: _430  and  _431
REMARK  190  A    between atoms: _436  and  _438
REMARK  191  A    between atoms: _438  and  _439
REMARK  192  A    between atoms: _438  and  _441
REMARK  193  A    between atoms: _441  and  _442
REMARK  194  A    between atoms: _445  and  _447
REMARK  195  A    between atoms: _447  and  _448
REMARK  196  A    between atoms: _447  and  _450
REMARK  197  A    between atoms: _450  and  _451
REMARK  198  A    between atoms: _454  and  _456
REMARK  199  A    between atoms: _456  and  _457
REMARK  200  A    between atoms: _456  and  _459
REMARK  201  A    between atoms: _459  and  _460
REMARK  202  A    between atoms: _463  and  _465
REMARK  203  A    between atoms: _465  and  _466
REMARK  204  A    between atoms: _465  and  _468
REMARK  205  A    between atoms: _468  and  _469
REMARK  206  A    between atoms: _469  and  _470
REMARK  207  A    between atoms: _470  and  _471
REMARK  208  A    between atoms: _471  and  _472
REMARK  209  A    between atoms: _476  and  _478
REMARK  210  A    between atoms: _478  and  _479
REMARK  211  A    between atoms: _478  and  _481
REMARK  212  A    between atoms: _481  and  _482
REMARK  213  A    between atoms: _485  and  _487
REMARK  214  A    between atoms: _487  and  _488
REMARK  215  A    between atoms: _487  and  _490
REMARK  216  A    between atoms: _492  and  _494
REMARK  217  A    between atoms: _494  and  _495
REMARK  218  A    between atoms: _494  and  _497
REMARK  219  A    between atoms: _497  and  _498
REMARK  220  A    between atoms: _501  and  _503
REMARK  221  A    between atoms: _503  and  _504
REMARK  222  A    between atoms: _503  and  _506
REMARK  223  A    between atoms: _506  and  _507
REMARK  224  A    between atoms: _513  and  _515
REMARK  225  A    between atoms: _515  and  _516
REMARK  226  A    between atoms: _518  and  _520
REMARK  227  A    between atoms: _520  and  _521
REMARK  228  A    between atoms: _520  and  _523
REMARK  229  A    between atoms: _523  and  _524
REMARK  230  A    between atoms: _527  and  _529
REMARK  231  A    between atoms: _529  and  _530
REMARK  232  A    between atoms: _529  and  _532
REMARK  233  A    between atoms: _532  and  _533
REMARK                            x       y       z     vdW  Elec       q    Type
REMARK                         _______ _______ _______ _____ _____    ______ ____
ROOT
ATOM      1  O   HOH     1      10.264  -3.342  41.305  0.00  0.00    +0.000 OA
ENDROOT
TORSDOF 0
REMARK  Name = ../refined-set-2016/3i60/3i60_pocket.pdb
REMARK  233 active torsions:
REMARK  status: ('A' for Active; 'I' for Inactive)
REMARK    1  A    between atoms: _1  and  _3
REMARK    2  A    between atoms: _3  and  _4
REMARK    3  A    between atoms: _3  and  _6
REMARK    4  A    between atoms: _6  and  _7
REMARK    5  A    between atoms: _9  and  _11
REMARK    6  A    between atoms: _11  and  _12
REMARK    7  A    between atoms: _11  and  _14
REMARK    8  A    between atoms: _14  and  _15
REMARK    9  A    between atoms: _20  and  _21
REMARK   10  A    between atoms: _23  and  _25
REMARK   11  A    between atoms: _25  and  _26
REMARK   12  A    between atoms: _25  and  _28
REMARK   13  A    between atoms: _28  and  _29
REMARK   14  A    between atoms: _32  and  _34
REMARK   15  A    between atoms: _34  and  _35
REMARK   16  A    between atoms: _37  and  _39
REMARK   17  A    between atoms: _39  and  _40
REMARK   18  A    between atoms: _39  and  _42
REMARK   19  A    between atoms: _42  and  _43
REMARK   20  A    between atoms: _43  and  _44
REMARK   21  A    between atoms: _47  and  _49
REMARK   22  A    between atoms: _49  and  _50
REMARK   23  A    between atoms: _52  and  _54
REMARK   24  A    between atoms: _54  and  _55
REMARK   25  A    between atoms: _58  and  _60
REMARK   26  A    between atoms: _60  and  _61
REMARK   27  A    between atoms: _60  and  _63
REMARK   28  A    between atoms: _63  and  _64
REMARK   29  A    between atoms: _69  and  _70
REMARK   30  A    between atoms: _72  and  _74
REMARK   31  A    between atoms: _74  and  _75
REMARK   32  A    between atoms: _77  and  _79
REMARK   33  A    between atoms: _79  and  _80
REMARK   34  A    between atoms: _79  and  _82
REMARK   35  A    between atoms: _82  and  _83
REMARK   36  A    between atoms: _83  and  _84
REMARK   37  A    between atoms: _86  and  _88
REMARK   38  A    between atoms: _88  and  _89
REMARK   39  A    between atoms: _88  and  _91
REMARK   40  A    between atoms: _94  and  _96
REMARK   41  A    between atoms: _96  and  _97
REMARK   42  A    between atoms: _96  and  _99
REMARK   43  A    between atoms: _101  and  _103
REMARK   44  A    between atoms: _103  and  _104
REMARK   45  A    between atoms: _103  and  _106
REMARK   46  A    between atoms: _106  and  _107
REMARK   47  A    between atoms: _109  and  _111
REMARK   48  A    between atoms: _111  and  _112
REMARK   49  A    between atoms: _111  and  _114
REMARK   50  A    between atoms: _114  and  _115
REMARK   51  A    between atoms: _115  and  _116
REMARK   52  A    between atoms: _116  and  _117
REMARK   53  A    between atoms: _126  and  _128
REMARK   54  A    between atoms: _128  and  _129
REMARK   55  A    between atoms: _128  and  _131
REMARK   56  A    between atoms: _134  and  _136
REMARK   57  A    between atoms: _136  and  _137
REMARK   58  A    between atoms: _140  and  _142
REMARK   59  A    between atoms: _142  and  _143
REMARK   60  A    between atoms: _142  and  _145
REMARK   61  A    between atoms: _145  and  _146
REMARK   62  A    between atoms: _149  and  _151
REMARK   63  A    between atoms: _151  and  _152
REMARK   64  A    between atoms: _151  and  _154
REMARK   65  A    between atoms: _154  and  _155
REMARK   66  A    between atoms: _155  and  _156
REMARK   67  A    between atoms: _156  and  _157
REMARK   68  A    between atoms: _157  and  _158
REMARK   69  A    between atoms: _162  and  _164
REMARK   70  A    between atoms: _164  and  _165
REMARK   71  A    between atoms: _164  and  _167
REMARK   72  A    between atoms: _167  and  _168
REMARK   73  A    between atoms: _168  and  _169
REMARK   74  A    between atoms: _169  and  _170
REMARK   75  A    between atoms: _170  and  _171
REMARK   76  A    between atoms: _175  and  _177
REMARK   77  A    between atoms: _177  and  _178
REMARK   78  A    between atoms: _177  and  _180
REMARK   79  A    between atoms: _180  and  _181
REMARK   80  A    between atoms: _184  and  _186
REMARK   81  A    between atoms: _186  and  _187
REMARK   82  A    between atoms: _186  and  _189
REMARK   83  A    between atoms: _189  and  _190
REMARK   84  A    between atoms: _192  and  _194
REMARK   85  A    between atoms: _194  and  _195
REMARK   86  A    between atoms: _194  and  _197
REMARK   87  A    between atoms: _197  and  _198
REMARK   88  A    between atoms: _198  and  _199
REMARK   89  A    between atoms: _199  and  _200
REMARK   90  A    between atoms: _209  and  _211
REMARK   91  A    between atoms: _211  and  _212
REMARK   92  A    between atoms: _211  and  _214
REMARK   93  A    between atoms: _214  and  _215
REMARK   94  A    between atoms: _218  and  _220
REMARK   95  A    between atoms: _220  and  _221
REMARK   96  A    between atoms: _220  and  _223
REMARK   97  A    between atoms: _223  and  _224
REMARK   98  A    between atoms: _224  and  _225
REMARK   99  A    between atoms: _228  and  _230
REMARK  100  A    between atoms: _230  and  _231
REMARK  101  A    between atoms: _230  and  _233
REMARK  102  A    between atoms: _233  and  _234
REMARK  103  A    between atoms: _237  and  _239
REMARK  104  A    between atoms: _239  and  _240
REMARK  105  A    between atoms: _239  and  _242
REMARK  106  A    between atoms: _242  and  _243
REMARK  107  A    between atoms: _246  and  _248
REMARK  108  A    between atoms: _248  and  _249
REMARK  109  A    between atoms: _251  and  _253
REMARK  110  A    between atoms: _253  and  _254
REMARK  111  A    between atoms: _253  and  _256
REMARK  112  A    between atoms: _259  and  _261
REMARK  113  A    between atoms: _261  and  _262
REMARK  114  A    between atoms: _261  and  _264
REMARK  115  A    between atoms: _264  and  _265
REMARK  116  A    between atoms: _268  and  _270
REMARK  117  A    between atoms: _270  and  _271
REMARK  118  A    between atoms: _270  and  _273
REMARK  119  A    between atoms: _276  and  _278
REMARK  120  A    between atoms: _278  and  _279
REMARK  121  A    between atoms: _278  and  _281
REMARK  122  A    between atoms: _281  and  _282
REMARK  123  A    between atoms: _282  and  _283
REMARK  124  A    between atoms: _288  and  _290
REMARK  125  A    between atoms: _290  and  _291
REMARK  126  A    between atoms: _290  and  _293
REMARK  127  A    between atoms: _293  and  _294
REMARK  128  A    between atoms: _297  and  _299
REMARK  129  A    between atoms: _299  and  _300
REMARK  130  A    between atoms: _299  and  _302
REMARK  131  A    between atoms: _302  and  _303
REMARK  132  A    between atoms: _306  and  _308
REMARK  133  A    between atoms: _308  and  _309
REMARK  134  A    between atoms: _308  and  _311
REMARK  135  A    between atoms: _311  and  _312
REMARK  136  A    between atoms: _312  and  _313
REMARK  137  A    between atoms: _315  and  _317
REMARK  138  A    between atoms: _317  and  _318
REMARK  139  A    between atoms: _317  and  _320
REMARK  140  A    between atoms: _320  and  _321
REMARK  141  A    between atoms: _321  and  _322
REMARK  142  A    between atoms: _325  and  _327
REMARK  143  A    between atoms: _327  and  _328
REMARK  144  A    between atoms: _327  and  _330
REMARK  145  A    between atoms: _330  and  _331
REMARK  146  A    between atoms: _334  and  _336
REMARK  147  A    between atoms: _336  and  _337
REMARK  148  A    between atoms: _336  and  _339
REMARK  149  A    between atoms: _339  and  _340
REMARK  150  A    between atoms: _343  and  _345
REMARK  151  A    between atoms: _345  and  _346
REMARK  152  A    between atoms: _345  and  _348
REMARK  153  A    between atoms: _348  and  _349
REMARK  154  A    between atoms: _352  and  _354
REMARK  155  A    between atoms: _354  and  _355
REMARK  156  A    between atoms: _354  and  _357
REMARK  157  A    between atoms: _357  and  _358
REMARK  158  A    between atoms: _363  and  _364
REMARK  159  A    between atoms: _366  and  _368
REMARK  160  A    between atoms: _368  and  _369
REMARK  161  A    between atoms: _368  and  _371
REMARK  162  A    between atoms: _371  and  _372
REMARK  163  A    between atoms: _372  and  _373
REMARK  164  A    between atoms: _373  and  _374
REMARK  165  A    between atoms: _374  and  _375
REMARK  166  A    between atoms: _379  and  _381
REMARK  167  A    between atoms: _381  and  _382
REMARK  168  A    between atoms: _381  and  _384
REMARK  169  A    between atoms: _384  and  _385
REMARK  170  A    between atoms: _388  and  _390
REMARK  171  A    between atoms: _390  and  _391
REMARK  172  A    between atoms: _390  and  _393
REMARK  173  A    between atoms: _393  and  _394
REMARK  174  A    between atoms: _397  and  _399
REMARK  175  A    between atoms: _399  and  _400
REMARK  176  A    between atoms: _399  and  _402
REMARK  177  A    between atoms: _402  and  _403
REMARK  178  A    between atoms: _403  and  _404
REMARK  179  A    between atoms: _404  and  _405
REMARK  180  A    between atoms: _405  and  _406
REMARK  181  A    between atoms: _411  and  _412
REMARK  182  A    between atoms: _417  and  _419
REMARK  183  A    between atoms: _419  and  _420
REMARK  184  A    between atoms: _419  and  _422
REMARK  185  A    between atoms: _422  and  _423
REMARK  186  A    between atoms: _425  and  _427
REMARK  187  A    between atoms: _427  and  _428
REMARK  188  A    between atoms: _427  and  _430
REMARK  189  A    between atoms: _430  and  _431
REMARK  190  A    between atoms: _436  and  _438
REMARK  191  A    between atoms: _438  and  _439
REMARK  192  A    between atoms: _438  and  _441
REMARK  193  A    between atoms: _441  and  _442
REMARK  194  A    between atoms: _445  and  _447
REMARK  195  A    between atoms: _447  and  _448
REMARK  196  A    between atoms: _447  and  _450
REMARK  197  A    between atoms: _450  and  _451
REMARK  198  A    between atoms: _454  and  _456
REMARK  199  A    between atoms: _456  and  _457
REMARK  200  A    between atoms: _456  and  _459
REMARK  201  A    between atoms: _459  and  _460
REMARK  202  A    between atoms: _463  and  _465
REMARK  203  A    between atoms: _465  and  _466
REMARK  204  A    between atoms: _465  and  _468
REMARK  205  A    between atoms: _468  and  _469
REMARK  206  A    between atoms: _469  and  _470
REMARK  207  A    between atoms: _470  and  _471
REMARK  208  A    between atoms: _471  and  _472
REMARK  209  A    between atoms: _476  and  _478
REMARK  210  A    between atoms: _478  and  _479
REMARK  211  A    between atoms: _478  and  _481
REMARK  212  A    between atoms: _481  and  _482
REMARK  213  A    between atoms: _485  and  _487
REMARK  214  A    between atoms: _487  and  _488
REMARK  215  A    between atoms: _487  and  _490
REMARK  216  A    between atoms: _492  and  _494
REMARK  217  A    between atoms: _494  and  _495
REMARK  218  A    between atoms: _494  and  _497
REMARK  219  A    between atoms: _497  and  _498
REMARK  220  A    between atoms: _501  and  _503
REMARK  221  A    between atoms: _503  and  _504
REMARK  222  A    between atoms: _503  and  _506
REMARK  223  A    between atoms: _506  and  _507
REMARK  224  A    between atoms: _513  and  _515
REMARK  225  A    between atoms: _515  and  _516
REMARK  226  A    between atoms: _518  and  _520
REMARK  227  A    between atoms: _520  and  _521
REMARK  228  A    between atoms: _520  and  _523
REMARK  229  A    between atoms: _523  and  _524
REMARK  230  A    between atoms: _527  and  _529
REMARK  231  A    between atoms: _529  and  _530
REMARK  232  A    between atoms: _529  and  _532
REMARK  233  A    between atoms: _532  and  _533
REMARK                            x       y       z     vdW  Elec       q    Type
REMARK                         _______ _______ _______ _____ _____    ______ ____
ROOT
ATOM      1  O   HOH     1      -2.179  -2.772  44.947  0.00  0.00    +0.000 OA
ENDROOT
TORSDOF 0
