REMARK  Name = ../refined-set-2016/4kax/4kax_pocket.pdb
REMARK  209 active torsions:
REMARK  status: ('A' for Active; 'I' for Inactive)
REMARK    1  A    between atoms: _1  and  _3
REMARK    2  A    between atoms: _3  and  _4
REMARK    3  A    between atoms: _3  and  _6
REMARK    4  A    between atoms: _6  and  _7
REMARK    5  A    between atoms: _7  and  _8
REMARK    6  A    between atoms: _10  and  _12
REMARK    7  A    between atoms: _12  and  _13
REMARK    8  A    between atoms: _12  and  _15
REMARK    9  A    between atoms: _15  and  _16
REMARK   10  A    between atoms: _19  and  _21
REMARK   11  A    between atoms: _21  and  _22
REMARK   12  A    between atoms: _24  and  _26
REMARK   13  A    between atoms: _26  and  _27
REMARK   14  A    between atoms: _26  and  _29
REMARK   15  A    between atoms: _29  and  _30
REMARK   16  A    between atoms: _33  and  _35
REMARK   17  A    between atoms: _35  and  _36
REMARK   18  A    between atoms: _35  and  _38
REMARK   19  A    between atoms: _38  and  _39
REMARK   20  A    between atoms: _42  and  _44
REMARK   21  A    between atoms: _44  and  _45
REMARK   22  A    between atoms: _48  and  _50
REMARK   23  A    between atoms: _50  and  _51
REMARK   24  A    between atoms: _54  and  _56
REMARK   25  A    between atoms: _56  and  _57
REMARK   26  A    between atoms: _59  and  _61
REMARK   27  A    between atoms: _61  and  _62
REMARK   28  A    between atoms: _61  and  _64
REMARK   29  A    between atoms: _64  and  _65
REMARK   30  A    between atoms: _65  and  _66
REMARK   31  A    between atoms: _66  and  _67
REMARK   32  A    between atoms: _67  and  _68
REMARK   33  A    between atoms: _72  and  _74
REMARK   34  A    between atoms: _74  and  _75
REMARK   35  A    between atoms: _74  and  _77
REMARK   36  A    between atoms: _77  and  _78
REMARK   37  A    between atoms: _81  and  _83
REMARK   38  A    between atoms: _83  and  _84
REMARK   39  A    between atoms: _83  and  _86
REMARK   40  A    between atoms: _86  and  _87
REMARK   41  A    between atoms: _90  and  _92
REMARK   42  A    between atoms: _92  and  _93
REMARK   43  A    between atoms: _92  and  _95
REMARK   44  A    between atoms: _95  and  _96
REMARK   45  A    between atoms: _99  and  _101
REMARK   46  A    between atoms: _101  and  _102
REMARK   47  A    between atoms: _101  and  _104
REMARK   48  A    between atoms: _104  and  _105
REMARK   49  A    between atoms: _108  and  _110
REMARK   50  A    between atoms: _110  and  _111
REMARK   51  A    between atoms: _110  and  _113
REMARK   52  A    between atoms: _113  and  _114
REMARK   53  A    between atoms: _119  and  _120
REMARK   54  A    between atoms: _122  and  _124
REMARK   55  A    between atoms: _124  and  _125
REMARK   56  A    between atoms: _124  and  _127
REMARK   57  A    between atoms: _127  and  _128
REMARK   58  A    between atoms: _128  and  _129
REMARK   59  A    between atoms: _129  and  _130
REMARK   60  A    between atoms: _130  and  _131
REMARK   61  A    between atoms: _135  and  _137
REMARK   62  A    between atoms: _137  and  _138
REMARK   63  A    between atoms: _137  and  _140
REMARK   64  A    between atoms: _140  and  _141
REMARK   65  A    between atoms: _143  and  _145
REMARK   66  A    between atoms: _145  and  _146
REMARK   67  A    between atoms: _145  and  _148
REMARK   68  A    between atoms: _151  and  _153
REMARK   69  A    between atoms: _153  and  _154
REMARK   70  A    between atoms: _153  and  _156
REMARK   71  A    between atoms: _156  and  _157
REMARK   72  A    between atoms: _160  and  _162
REMARK   73  A    between atoms: _162  and  _163
REMARK   74  A    between atoms: _162  and  _165
REMARK   75  A    between atoms: _165  and  _166
REMARK   76  A    between atoms: _169  and  _171
REMARK   77  A    between atoms: _171  and  _172
REMARK   78  A    between atoms: _171  and  _174
REMARK   79  A    between atoms: _174  and  _175
REMARK   80  A    between atoms: _179  and  _180
REMARK   81  A    between atoms: _185  and  _187
REMARK   82  A    between atoms: _187  and  _188
REMARK   83  A    between atoms: _187  and  _190
REMARK   84  A    between atoms: _190  and  _191
REMARK   85  A    between atoms: _194  and  _196
REMARK   86  A    between atoms: _196  and  _197
REMARK   87  A    between atoms: _196  and  _199
REMARK   88  A    between atoms: _202  and  _204
REMARK   89  A    between atoms: _204  and  _205
REMARK   90  A    between atoms: _207  and  _209
REMARK   91  A    between atoms: _209  and  _210
REMARK   92  A    between atoms: _209  and  _212
REMARK   93  A    between atoms: _212  and  _213
REMARK   94  A    between atoms: _219  and  _221
REMARK   95  A    between atoms: _221  and  _222
REMARK   96  A    between atoms: _221  and  _224
REMARK   97  A    between atoms: _224  and  _225
REMARK   98  A    between atoms: _230  and  _232
REMARK   99  A    between atoms: _232  and  _233
REMARK  100  A    between atoms: _232  and  _235
REMARK  101  A    between atoms: _235  and  _236
REMARK  102  A    between atoms: _239  and  _241
REMARK  103  A    between atoms: _241  and  _242
REMARK  104  A    between atoms: _241  and  _244
REMARK  105  A    between atoms: _247  and  _249
REMARK  106  A    between atoms: _249  and  _250
REMARK  107  A    between atoms: _252  and  _254
REMARK  108  A    between atoms: _254  and  _255
REMARK  109  A    between atoms: _257  and  _259
REMARK  110  A    between atoms: _259  and  _260
REMARK  111  A    between atoms: _259  and  _262
REMARK  112  A    between atoms: _262  and  _263
REMARK  113  A    between atoms: _266  and  _268
REMARK  114  A    between atoms: _268  and  _269
REMARK  115  A    between atoms: _268  and  _271
REMARK  116  A    between atoms: _271  and  _272
REMARK  117  A    between atoms: _275  and  _277
REMARK  118  A    between atoms: _277  and  _278
REMARK  119  A    between atoms: _277  and  _280
REMARK  120  A    between atoms: _280  and  _281
REMARK  121  A    between atoms: _284  and  _286
REMARK  122  A    between atoms: _286  and  _287
REMARK  123  A    between atoms: _286  and  _289
REMARK  124  A    between atoms: _289  and  _290
REMARK  125  A    between atoms: _290  and  _291
REMARK  126  A    between atoms: _291  and  _292
REMARK  127  A    between atoms: _301  and  _303
REMARK  128  A    between atoms: _303  and  _304
REMARK  129  A    between atoms: _303  and  _306
REMARK  130  A    between atoms: _306  and  _307
REMARK  131  A    between atoms: _317  and  _319
REMARK  132  A    between atoms: _319  and  _320
REMARK  133  A    between atoms: _319  and  _322
REMARK  134  A    between atoms: _325  and  _327
REMARK  135  A    between atoms: _327  and  _328
REMARK  136  A    between atoms: _327  and  _330
REMARK  137  A    between atoms: _333  and  _335
REMARK  138  A    between atoms: _335  and  _336
REMARK  139  A    between atoms: _335  and  _338
REMARK  140  A    between atoms: _338  and  _339
REMARK  141  A    between atoms: _342  and  _344
REMARK  142  A    between atoms: _344  and  _345
REMARK  143  A    between atoms: _344  and  _347
REMARK  144  A    between atoms: _349  and  _351
REMARK  145  A    between atoms: _351  and  _352
REMARK  146  A    between atoms: _355  and  _357
REMARK  147  A    between atoms: _357  and  _358
REMARK  148  A    between atoms: _357  and  _360
REMARK  149  A    between atoms: _360  and  _361
REMARK  150  A    between atoms: _361  and  _362
REMARK  151  A    between atoms: _362  and  _363
REMARK  152  A    between atoms: _372  and  _374
REMARK  153  A    between atoms: _374  and  _375
REMARK  154  A    between atoms: _378  and  _380
REMARK  155  A    between atoms: _380  and  _381
REMARK  156  A    between atoms: _380  and  _383
REMARK  157  A    between atoms: _383  and  _384
REMARK  158  A    between atoms: _389  and  _391
REMARK  159  A    between atoms: _391  and  _392
REMARK  160  A    between atoms: _391  and  _394
REMARK  161  A    between atoms: _394  and  _395
REMARK  162  A    between atoms: _395  and  _396
REMARK  163  A    between atoms: _396  and  _397
REMARK  164  A    between atoms: _397  and  _398
REMARK  165  A    between atoms: _402  and  _404
REMARK  166  A    between atoms: _404  and  _405
REMARK  167  A    between atoms: _404  and  _407
REMARK  168  A    between atoms: _407  and  _408
REMARK  169  A    between atoms: _408  and  _409
REMARK  170  A    between atoms: _414  and  _416
REMARK  171  A    between atoms: _416  and  _417
REMARK  172  A    between atoms: _416  and  _419
REMARK  173  A    between atoms: _419  and  _420
REMARK  174  A    between atoms: _423  and  _425
REMARK  175  A    between atoms: _425  and  _426
REMARK  176  A    between atoms: _425  and  _428
REMARK  177  A    between atoms: _428  and  _429
REMARK  178  A    between atoms: _433  and  _434
REMARK  179  A    between atoms: _439  and  _441
REMARK  180  A    between atoms: _441  and  _442
REMARK  181  A    between atoms: _441  and  _444
REMARK  182  A    between atoms: _444  and  _445
REMARK  183  A    between atoms: _447  and  _449
REMARK  184  A    between atoms: _449  and  _450
REMARK  185  A    between atoms: _449  and  _452
REMARK  186  A    between atoms: _454  and  _456
REMARK  187  A    between atoms: _456  and  _457
REMARK  188  A    between atoms: _460  and  _462
REMARK  189  A    between atoms: _462  and  _463
REMARK  190  A    between atoms: _462  and  _465
REMARK  191  A    between atoms: _465  and  _466
REMARK  192  A    between atoms: _469  and  _471
REMARK  193  A    between atoms: _471  and  _472
REMARK  194  A    between atoms: _471  and  _474
REMARK  195  A    between atoms: _474  and  _475
REMARK  196  A    between atoms: _477  and  _479
REMARK  197  A    between atoms: _479  and  _480
REMARK  198  A    between atoms: _482  and  _484
REMARK  199  A    between atoms: _484  and  _485
REMARK  200  A    between atoms: _484  and  _487
REMARK  201  A    between atoms: _487  and  _488
REMARK  202  A    between atoms: _491  and  _493
REMARK  203  A    between atoms: _493  and  _494
REMARK  204  A    between atoms: _493  and  _496
REMARK  205  A    between atoms: _496  and  _497
REMARK  206  A    between atoms: _500  and  _502
REMARK  207  A    between atoms: _502  and  _503
REMARK  208  A    between atoms: _502  and  _505
REMARK  209  A    between atoms: _505  and  _506
REMARK                            x       y       z     vdW  Elec       q    Type
REMARK                         _______ _______ _______ _____ _____    ______ ____
ROOT
ATOM      1  CA  LYS A   9      -0.023   3.588  54.332  0.00  0.00    +0.149 C 
ENDROOT
BRANCH   1   4
ATOM      2  C   GLY A   8      -2.019   4.444  55.494  0.00  0.00    +0.243 C 
ATOM      3  O   GLY A   8      -1.654   3.989  56.571  0.00  0.00    -0.273 OA
ATOM      4  N   LYS A   9      -1.276   4.370  54.392  0.00  0.00    -0.297 N 
ATOM      5  H   LYS A   9      -1.589   4.881  53.542  0.00  0.00    +0.150 HD
BRANCH   2   6
ATOM      6  CA  GLY A   8      -3.363   5.154  55.370  0.00  0.00    +0.176 C 
BRANCH   6   9
ATOM      7  C   ALA A   7      -4.942   5.087  53.481  0.00  0.00    +0.241 C 
ATOM      8  O   ALA A   7      -5.786   4.447  54.122  0.00  0.00    -0.273 OA
ATOM      9  N   GLY A   8      -3.770   5.478  53.997  0.00  0.00    -0.295 N 
ATOM     10  H   GLY A   8      -3.122   6.033  53.402  0.00  0.00    +0.150 HD
BRANCH   7  11
ATOM     11  CA  ALA A   7      -5.233   5.493  52.025  0.00  0.00    +0.149 C 
ATOM     12  CB  ALA A   7      -4.789   4.419  51.059  0.00  0.00    +0.031 C 
BRANCH  11  15
ATOM     13  C   ALA A   6      -5.094   7.918  52.233  0.00  0.00    +0.241 C 
ATOM     14  O   ALA A   6      -5.950   7.935  53.121  0.00  0.00    -0.273 OA
ATOM     15  N   ALA A   7      -4.680   6.795  51.651  0.00  0.00    -0.297 N 
ATOM     16  H   ALA A   7      -3.947   6.844  50.914  0.00  0.00    +0.150 HD
BRANCH  13  17
ATOM     17  CA  ALA A   6      -4.456   9.226  51.755  0.00  0.00    +0.149 C 
ATOM     18  CB  ALA A   6      -5.542  10.292  51.470  0.00  0.00    +0.031 C 
BRANCH  17  20
ATOM     19  C   ASP A   5      -3.857   8.875  49.362  0.00  0.00    +0.241 C 
ATOM     20  N   ALA A   6      -3.511   9.099  50.631  0.00  0.00    -0.297 N 
ATOM     21  H   ALA A   6      -2.497   9.191  50.843  0.00  0.00    +0.150 HD
ATOM     22  O   ASP A   5      -5.011   8.660  48.979  0.00  0.00    -0.273 OA
BRANCH  19  23
ATOM     23  CA  ASP A   5      -2.708   8.867  48.357  0.00  0.00    +0.160 C 
BRANCH  23  26
ATOM     24  C   LEU A   4      -3.292   6.629  47.675  0.00  0.00    +0.241 C 
ATOM     25  O   LEU A   4      -3.178   6.210  48.831  0.00  0.00    -0.273 OA
ATOM     26  N   ASP A   5      -3.012   7.884  47.339  0.00  0.00    -0.297 N 
ATOM     27  H   ASP A   5      -3.011   8.162  46.337  0.00  0.00    +0.150 HD
BRANCH  24  28
ATOM     28  CA  LEU A   4      -3.766   5.713  46.561  0.00  0.00    +0.149 C 
BRANCH  28  31
ATOM     29  C   GLY A   3      -2.335   3.819  47.135  0.00  0.00    +0.243 C 
ATOM     30  O   GLY A   3      -1.315   4.505  47.062  0.00  0.00    -0.273 OA
ATOM     31  N   LEU A   4      -3.555   4.302  46.909  0.00  0.00    -0.297 N 
ATOM     32  H   LEU A   4      -4.375   3.667  46.980  0.00  0.00    +0.150 HD
BRANCH  29  33
ATOM     33  CA  GLY A   3      -2.241   2.360  47.508  0.00  0.00    +0.176 C 
BRANCH  33  36
ATOM     34  C   LEU A   2      -0.333   0.953  48.076  0.00  0.00    +0.241 C 
ATOM     35  O   LEU A   2      -0.980   0.301  48.900  0.00  0.00    -0.273 OA
ATOM     36  N   GLY A   3      -0.850   1.945  47.358  0.00  0.00    -0.295 N 
ATOM     37  H   GLY A   3      -0.246   2.439  46.670  0.00  0.00    +0.150 HD
BRANCH  34  38
ATOM     38  CA  LEU A   2       1.146   0.665  47.844  0.00  0.00    +0.149 C 
BRANCH  38  41
ATOM     39  C   MET A   1       2.704  -0.038  49.587  0.00  0.00    +0.238 C 
ATOM     40  O   MET A   1       3.312   1.030  49.569  0.00  0.00    -0.274 OA
ATOM     41  N   LEU A   2       1.631  -0.284  48.836  0.00  0.00    -0.297 N 
ATOM     42  H   LEU A   2       1.124  -1.183  48.963  0.00  0.00    +0.150 HD
BRANCH  39  43
ATOM     43  CA  MET A   1       3.138  -1.183  50.498  0.00  0.00    +0.146 C 
BRANCH  43  44
ATOM     44  N   MET A   1       4.452  -1.700  50.114  0.00  0.00    -0.238 NA
ATOM     45  H   MET A   1       5.296  -1.116  50.282  0.00  0.00    +0.142 HD
ENDBRANCH  43  44
BRANCH  43  46
ATOM     46  CB  MET A   1       3.097  -0.781  51.979  0.00  0.00    +0.038 C 
BRANCH  46  47
ATOM     47  CG  MET A   1       1.735  -0.235  52.426  0.00  0.00    +0.060 C 
BRANCH  47  48
ATOM     48  SD  MET A   1       1.482  -0.338  54.208  0.00  0.00    -0.139 S 
ATOM     49  CE  MET A   1       2.857   0.621  54.845  0.00  0.00    +0.069 C 
ENDBRANCH  47  48
ENDBRANCH  46  47
ENDBRANCH  43  46
ENDBRANCH  39  43
ENDBRANCH  38  41
BRANCH  38  50
ATOM     50  CB  LEU A   2       1.370   0.118  46.430  0.00  0.00    +0.029 C 
BRANCH  50  51
ATOM     51  CG  LEU A   2       2.825  -0.181  46.044  0.00  0.00    +0.002 C 
ATOM     52  CD2 LEU A   2       3.640   1.103  46.030  0.00  0.00    +0.000 C 
ATOM     53  CD1 LEU A   2       2.890  -0.884  44.693  0.00  0.00    +0.000 C 
ENDBRANCH  50  51
ENDBRANCH  38  50
ENDBRANCH  34  38
ENDBRANCH  33  36
ENDBRANCH  29  33
ENDBRANCH  28  31
BRANCH  28  54
ATOM     54  CB  LEU A   4      -5.247   5.991  46.253  0.00  0.00    +0.029 C 
BRANCH  54  55
ATOM     55  CG  LEU A   4      -5.985   5.117  45.238  0.00  0.00    +0.002 C 
ATOM     56  CD2 LEU A   4      -7.342   5.748  44.949  0.00  0.00    +0.000 C 
ATOM     57  CD1 LEU A   4      -5.199   4.940  43.944  0.00  0.00    +0.000 C 
ENDBRANCH  54  55
ENDBRANCH  28  54
ENDBRANCH  24  28
ENDBRANCH  23  26
BRANCH  23  58
ATOM     58  CB  ASP A   5      -2.527  10.258  47.742  0.00  0.00    +0.143 C 
BRANCH  58  59
ATOM     59  CG  ASP A   5      -3.696  10.664  46.859  0.00  0.00    +0.367 C 
ATOM     60  OD2 ASP A   5      -4.411  11.615  47.237  0.00  0.00    -0.246 OA
ATOM     61  OD1 ASP A   5      -3.902  10.027  45.804  0.00  0.00    -0.246 OA
ENDBRANCH  58  59
ENDBRANCH  23  58
ENDBRANCH  19  23
ENDBRANCH  17  20
ENDBRANCH  13  17
ENDBRANCH  11  15
ENDBRANCH   7  11
ENDBRANCH   6   9
ENDBRANCH   2   6
ENDBRANCH   1   4
BRANCH   1  62
ATOM     62  C   LYS A   9       1.003   3.977  55.387  0.00  0.00    +0.241 C 
ATOM     63  O   LYS A   9       1.483   3.123  56.134  0.00  0.00    -0.273 OA
ATOM     64  N   THR A  10       1.322   5.265  55.466  0.00  0.00    -0.295 N 
ATOM     65  H   THR A  10       0.843   5.945  54.842  0.00  0.00    +0.150 HD
BRANCH  64  66
ATOM     66  CA  THR A  10       2.328   5.748  56.408  0.00  0.00    +0.176 C 
BRANCH  66  67
ATOM     67  C   THR A  10       1.858   5.603  57.861  0.00  0.00    +0.243 C 
ATOM     68  O   THR A  10       2.647   5.287  58.752  0.00  0.00    -0.273 OA
ATOM     69  N   THR A  11       0.564   5.806  58.087  0.00  0.00    -0.295 N 
ATOM     70  H   THR A  11      -0.054   6.086  57.299  0.00  0.00    +0.150 HD
BRANCH  69  71
ATOM     71  CA  THR A  11      -0.006   5.643  59.422  0.00  0.00    +0.176 C 
BRANCH  71  72
ATOM     72  C   THR A  11       0.183   4.202  59.910  0.00  0.00    +0.243 C 
ATOM     73  O   THR A  11       0.566   3.989  61.060  0.00  0.00    -0.273 OA
ATOM     74  N   ILE A  12      -0.076   3.242  59.023  0.00  0.00    -0.297 N 
ATOM     75  H   ILE A  12      -0.422   3.528  58.085  0.00  0.00    +0.150 HD
BRANCH  74  76
ATOM     76  CA  ILE A  12       0.095   1.812  59.283  0.00  0.00    +0.149 C 
BRANCH  76  77
ATOM     77  C   ILE A  12       1.570   1.514  59.557  0.00  0.00    +0.241 C 
ATOM     78  O   ILE A  12       1.912   0.860  60.547  0.00  0.00    -0.273 OA
ATOM     79  N   LEU A  13       2.442   2.014  58.685  0.00  0.00    -0.297 N 
ATOM     80  H   LEU A  13       2.102   2.587  57.886  0.00  0.00    +0.150 HD
BRANCH  79  81
ATOM     81  CA  LEU A  13       3.877   1.765  58.840  0.00  0.00    +0.149 C 
BRANCH  81  82
ATOM     82  C   LEU A  13       4.389   2.121  60.239  0.00  0.00    +0.241 C 
ATOM     83  O   LEU A  13       5.066   1.312  60.884  0.00  0.00    -0.273 OA
ATOM     84  N   TYR A  14       4.060   3.325  60.705  0.00  0.00    -0.297 N 
ATOM     85  H   TYR A  14       3.420   3.928  60.150  0.00  0.00    +0.150 HD
BRANCH  84  86
ATOM     86  CA  TYR A  14       4.579   3.815  61.977  0.00  0.00    +0.153 C 
BRANCH  86  87
ATOM     87  C   TYR A  14       3.802   3.339  63.202  0.00  0.00    +0.241 C 
ATOM     88  O   TYR A  14       4.360   3.266  64.295  0.00  0.00    -0.273 OA
ATOM     89  N   LYS A  15       2.537   2.971  63.002  0.00  0.00    -0.298 N 
ATOM     90  H   LYS A  15       2.071   3.196  62.100  0.00  0.00    +0.150 HD
BRANCH  89  91
ATOM     91  CA  LYS A  15       1.797   2.252  64.041  0.00  0.00    +0.137 C 
BRANCH  91  92
ATOM     92  C   LYS A  15       2.530   0.945  64.352  0.00  0.00    +0.227 C 
ATOM     93  O   LYS A  15       2.709   0.587  65.517  0.00  0.00    -0.286 OA
ENDBRANCH  91  92
BRANCH  91  94
ATOM     94  CB  LYS A  15       0.348   1.994  63.612  0.00  0.00    +0.028 C 
BRANCH  94  95
ATOM     95  CG  LYS A  15      -0.584   1.534  64.734  0.00  0.00    -0.000 C 
BRANCH  95  96
ATOM     96  CD  LYS A  15      -0.672   2.572  65.825  0.00  0.00    -0.024 C 
BRANCH  96  97
ATOM     97  CE  LYS A  15      -1.918   2.385  66.655  0.00  0.00    -0.086 C 
BRANCH  97  98
ATOM     98  NZ  LYS A  15      -2.090   3.546  67.557  0.00  0.00    +0.380 N 
ATOM     99  HZ1 LYS A  15      -1.264   3.622  68.184  0.00  0.00    -0.089 HD
ATOM    100  HZ2 LYS A  15      -2.949   3.415  68.128  0.00  0.00    -0.089 HD
ATOM    101  HZ3 LYS A  15      -2.178   4.414  66.990  0.00  0.00    -0.089 HD
ENDBRANCH  97  98
ENDBRANCH  96  97
ENDBRANCH  95  96
ENDBRANCH  94  95
ENDBRANCH  91  94
ENDBRANCH  89  91
ENDBRANCH  86  87
BRANCH  86 102
ATOM    102  CB  TYR A  14       4.794   5.341  61.928  0.00  0.00    +0.055 C 
BRANCH 102 103
ATOM    103  CG  TYR A  14       5.952   5.613  61.001  0.00  0.00    -0.020 A 
ATOM    104  CD2 TYR A  14       7.258   5.328  61.402  0.00  0.00    -0.001 A 
ATOM    105  CE2 TYR A  14       8.334   5.513  60.537  0.00  0.00    +0.036 A 
ATOM    106  CZ  TYR A  14       8.098   5.970  59.247  0.00  0.00    +0.134 A 
ATOM    107  CE1 TYR A  14       6.809   6.237  58.819  0.00  0.00    +0.036 A 
ATOM    108  CD1 TYR A  14       5.738   6.046  59.693  0.00  0.00    -0.001 A 
BRANCH 106 109
ATOM    109  OH  TYR A  14       9.156   6.148  58.376  0.00  0.00    -0.506 OA
ATOM    110  HH  TYR A  14      10.002   5.915  58.834  0.00  0.00    +0.292 HD
ENDBRANCH 106 109
ENDBRANCH 102 103
ENDBRANCH  86 102
ENDBRANCH  84  86
ENDBRANCH  81  82
BRANCH  81 111
ATOM    111  CB  LEU A  13       4.682   2.511  57.767  0.00  0.00    +0.029 C 
BRANCH 111 112
ATOM    112  CG  LEU A  13       6.205   2.272  57.818  0.00  0.00    +0.002 C 
ATOM    113  CD2 LEU A  13       6.538   0.783  57.649  0.00  0.00    +0.000 C 
ATOM    114  CD1 LEU A  13       6.908   3.110  56.752  0.00  0.00    +0.000 C 
ENDBRANCH 111 112
ENDBRANCH  81 111
ENDBRANCH  79  81
ENDBRANCH  76  77
BRANCH  76 115
ATOM    115  CB  ILE A  12      -0.417   0.954  58.090  0.00  0.00    +0.027 C 
ATOM    116  CG2 ILE A  12       0.045  -0.513  58.199  0.00  0.00    +0.002 C 
BRANCH 115 117
ATOM    117  CG1 ILE A  12      -1.945   1.041  57.985  0.00  0.00    +0.002 C 
ATOM    118  CD1 ILE A  12      -2.540   0.341  56.788  0.00  0.00    +0.000 C 
ENDBRANCH 115 117
ENDBRANCH  76 115
ENDBRANCH  74  76
ENDBRANCH  71  72
BRANCH  71 119
ATOM    119  CB  THR A  11      -1.505   6.033  59.440  0.00  0.00    +0.137 C 
ATOM    120  CG2 THR A  11      -2.063   5.952  60.866  0.00  0.00    +0.034 C 
BRANCH 119 121
ATOM    121  OG1 THR A  11      -1.655   7.375  58.941  0.00  0.00    -0.382 OA
ATOM    122  HG1 THR A  11      -1.312   7.421  58.014  0.00  0.00    +0.210 HD
ENDBRANCH 119 121
ENDBRANCH  71 119
ENDBRANCH  69  71
ENDBRANCH  66  67
BRANCH  66 123
ATOM    123  CB  THR A  10       2.725   7.197  56.092  0.00  0.00    +0.137 C 
ATOM    124  CG2 THR A  10       3.917   7.639  56.938  0.00  0.00    +0.034 C 
BRANCH 123 125
ATOM    125  OG1 THR A  10       3.091   7.271  54.704  0.00  0.00    -0.382 OA
ATOM    126  HG1 THR A  10       3.351   8.200  54.481  0.00  0.00    +0.210 HD
ENDBRANCH 123 125
ENDBRANCH  66 123
ENDBRANCH  64  66
ENDBRANCH   1  62
BRANCH   1 127
ATOM    127  CB  LYS A   9       0.610   3.686  52.941  0.00  0.00    +0.029 C 
BRANCH 127 128
ATOM    128  CG  LYS A   9      -0.241   3.123  51.833  0.00  0.00    +0.000 C 
BRANCH 128 129
ATOM    129  CD  LYS A   9       0.470   3.220  50.481  0.00  0.00    -0.024 C 
BRANCH 129 130
ATOM    130  CE  LYS A   9       0.783   4.667  50.076  0.00  0.00    -0.086 C 
BRANCH 130 131
ATOM    131  NZ  LYS A   9      -0.431   5.514  49.834  0.00  0.00    +0.380 N 
ATOM    132  HZ1 LYS A   9      -1.002   5.556  50.703  0.00  0.00    -0.089 HD
ATOM    133  HZ2 LYS A   9      -0.135   6.474  49.566  0.00  0.00    -0.089 HD
ATOM    134  HZ3 LYS A   9      -0.996   5.097  49.067  0.00  0.00    -0.089 HD
ENDBRANCH 130 131
ENDBRANCH 129 130
ENDBRANCH 128 129
ENDBRANCH 127 128
ENDBRANCH   1 127
TORSDOF 60
REMARK  Name = ../refined-set-2016/4kax/4kax_pocket.pdb
REMARK  209 active torsions:
REMARK  status: ('A' for Active; 'I' for Inactive)
REMARK    1  A    between atoms: _1  and  _3
REMARK    2  A    between atoms: _3  and  _4
REMARK    3  A    between atoms: _3  and  _6
REMARK    4  A    between atoms: _6  and  _7
REMARK    5  A    between atoms: _7  and  _8
REMARK    6  A    between atoms: _10  and  _12
REMARK    7  A    between atoms: _12  and  _13
REMARK    8  A    between atoms: _12  and  _15
REMARK    9  A    between atoms: _15  and  _16
REMARK   10  A    between atoms: _19  and  _21
REMARK   11  A    between atoms: _21  and  _22
REMARK   12  A    between atoms: _24  and  _26
REMARK   13  A    between atoms: _26  and  _27
REMARK   14  A    between atoms: _26  and  _29
REMARK   15  A    between atoms: _29  and  _30
REMARK   16  A    between atoms: _33  and  _35
REMARK   17  A    between atoms: _35  and  _36
REMARK   18  A    between atoms: _35  and  _38
REMARK   19  A    between atoms: _38  and  _39
REMARK   20  A    between atoms: _42  and  _44
REMARK   21  A    between atoms: _44  and  _45
REMARK   22  A    between atoms: _48  and  _50
REMARK   23  A    between atoms: _50  and  _51
REMARK   24  A    between atoms: _54  and  _56
REMARK   25  A    between atoms: _56  and  _57
REMARK   26  A    between atoms: _59  and  _61
REMARK   27  A    between atoms: _61  and  _62
REMARK   28  A    between atoms: _61  and  _64
REMARK   29  A    between atoms: _64  and  _65
REMARK   30  A    between atoms: _65  and  _66
REMARK   31  A    between atoms: _66  and  _67
REMARK   32  A    between atoms: _67  and  _68
REMARK   33  A    between atoms: _72  and  _74
REMARK   34  A    between atoms: _74  and  _75
REMARK   35  A    between atoms: _74  and  _77
REMARK   36  A    between atoms: _77  and  _78
REMARK   37  A    between atoms: _81  and  _83
REMARK   38  A    between atoms: _83  and  _84
REMARK   39  A    between atoms: _83  and  _86
REMARK   40  A    between atoms: _86  and  _87
REMARK   41  A    between atoms: _90  and  _92
REMARK   42  A    between atoms: _92  and  _93
REMARK   43  A    between atoms: _92  and  _95
REMARK   44  A    between atoms: _95  and  _96
REMARK   45  A    between atoms: _99  and  _101
REMARK   46  A    between atoms: _101  and  _102
REMARK   47  A    between atoms: _101  and  _104
REMARK   48  A    between atoms: _104  and  _105
REMARK   49  A    between atoms: _108  and  _110
REMARK   50  A    between atoms: _110  and  _111
REMARK   51  A    between atoms: _110  and  _113
REMARK   52  A    between atoms: _113  and  _114
REMARK   53  A    between atoms: _119  and  _120
REMARK   54  A    between atoms: _122  and  _124
REMARK   55  A    between atoms: _124  and  _125
REMARK   56  A    between atoms: _124  and  _127
REMARK   57  A    between atoms: _127  and  _128
REMARK   58  A    between atoms: _128  and  _129
REMARK   59  A    between atoms: _129  and  _130
REMARK   60  A    between atoms: _130  and  _131
REMARK   61  A    between atoms: _135  and  _137
REMARK   62  A    between atoms: _137  and  _138
REMARK   63  A    between atoms: _137  and  _140
REMARK   64  A    between atoms: _140  and  _141
REMARK   65  A    between atoms: _143  and  _145
REMARK   66  A    between atoms: _145  and  _146
REMARK   67  A    between atoms: _145  and  _148
REMARK   68  A    between atoms: _151  and  _153
REMARK   69  A    between atoms: _153  and  _154
REMARK   70  A    between atoms: _153  and  _156
REMARK   71  A    between atoms: _156  and  _157
REMARK   72  A    between atoms: _160  and  _162
REMARK   73  A    between atoms: _162  and  _163
REMARK   74  A    between atoms: _162  and  _165
REMARK   75  A    between atoms: _165  and  _166
REMARK   76  A    between atoms: _169  and  _171
REMARK   77  A    between atoms: _171  and  _172
REMARK   78  A    between atoms: _171  and  _174
REMARK   79  A    between atoms: _174  and  _175
REMARK   80  A    between atoms: _179  and  _180
REMARK   81  A    between atoms: _185  and  _187
REMARK   82  A    between atoms: _187  and  _188
REMARK   83  A    between atoms: _187  and  _190
REMARK   84  A    between atoms: _190  and  _191
REMARK   85  A    between atoms: _194  and  _196
REMARK   86  A    between atoms: _196  and  _197
REMARK   87  A    between atoms: _196  and  _199
REMARK   88  A    between atoms: _202  and  _204
REMARK   89  A    between atoms: _204  and  _205
REMARK   90  A    between atoms: _207  and  _209
REMARK   91  A    between atoms: _209  and  _210
REMARK   92  A    between atoms: _209  and  _212
REMARK   93  A    between atoms: _212  and  _213
REMARK   94  A    between atoms: _219  and  _221
REMARK   95  A    between atoms: _221  and  _222
REMARK   96  A    between atoms: _221  and  _224
REMARK   97  A    between atoms: _224  and  _225
REMARK   98  A    between atoms: _230  and  _232
REMARK   99  A    between atoms: _232  and  _233
REMARK  100  A    between atoms: _232  and  _235
REMARK  101  A    between atoms: _235  and  _236
REMARK  102  A    between atoms: _239  and  _241
REMARK  103  A    between atoms: _241  and  _242
REMARK  104  A    between atoms: _241  and  _244
REMARK  105  A    between atoms: _247  and  _249
REMARK  106  A    between atoms: _249  and  _250
REMARK  107  A    between atoms: _252  and  _254
REMARK  108  A    between atoms: _254  and  _255
REMARK  109  A    between atoms: _257  and  _259
REMARK  110  A    between atoms: _259  and  _260
REMARK  111  A    between atoms: _259  and  _262
REMARK  112  A    between atoms: _262  and  _263
REMARK  113  A    between atoms: _266  and  _268
REMARK  114  A    between atoms: _268  and  _269
REMARK  115  A    between atoms: _268  and  _271
REMARK  116  A    between atoms: _271  and  _272
REMARK  117  A    between atoms: _275  and  _277
REMARK  118  A    between atoms: _277  and  _278
REMARK  119  A    between atoms: _277  and  _280
REMARK  120  A    between atoms: _280  and  _281
REMARK  121  A    between atoms: _284  and  _286
REMARK  122  A    between atoms: _286  and  _287
REMARK  123  A    between atoms: _286  and  _289
REMARK  124  A    between atoms: _289  and  _290
REMARK  125  A    between atoms: _290  and  _291
REMARK  126  A    between atoms: _291  and  _292
REMARK  127  A    between atoms: _301  and  _303
REMARK  128  A    between atoms: _303  and  _304
REMARK  129  A    between atoms: _303  and  _306
REMARK  130  A    between atoms: _306  and  _307
REMARK  131  A    between atoms: _317  and  _319
REMARK  132  A    between atoms: _319  and  _320
REMARK  133  A    between atoms: _319  and  _322
REMARK  134  A    between atoms: _325  and  _327
REMARK  135  A    between atoms: _327  and  _328
REMARK  136  A    between atoms: _327  and  _330
REMARK  137  A    between atoms: _333  and  _335
REMARK  138  A    between atoms: _335  and  _336
REMARK  139  A    between atoms: _335  and  _338
REMARK  140  A    between atoms: _338  and  _339
REMARK  141  A    between atoms: _342  and  _344
REMARK  142  A    between atoms: _344  and  _345
REMARK  143  A    between atoms: _344  and  _347
REMARK  144  A    between atoms: _349  and  _351
REMARK  145  A    between atoms: _351  and  _352
REMARK  146  A    between atoms: _355  and  _357
REMARK  147  A    between atoms: _357  and  _358
REMARK  148  A    between atoms: _357  and  _360
REMARK  149  A    between atoms: _360  and  _361
REMARK  150  A    between atoms: _361  and  _362
REMARK  151  A    between atoms: _362  and  _363
REMARK  152  A    between atoms: _372  and  _374
REMARK  153  A    between atoms: _374  and  _375
REMARK  154  A    between atoms: _378  and  _380
REMARK  155  A    between atoms: _380  and  _381
REMARK  156  A    between atoms: _380  and  _383
REMARK  157  A    between atoms: _383  and  _384
REMARK  158  A    between atoms: _389  and  _391
REMARK  159  A    between atoms: _391  and  _392
REMARK  160  A    between atoms: _391  and  _394
REMARK  161  A    between atoms: _394  and  _395
REMARK  162  A    between atoms: _395  and  _396
REMARK  163  A    between atoms: _396  and  _397
REMARK  164  A    between atoms: _397  and  _398
REMARK  165  A    between atoms: _402  and  _404
REMARK  166  A    between atoms: _404  and  _405
REMARK  167  A    between atoms: _404  and  _407
REMARK  168  A    between atoms: _407  and  _408
REMARK  169  A    between atoms: _408  and  _409
REMARK  170  A    between atoms: _414  and  _416
REMARK  171  A    between atoms: _416  and  _417
REMARK  172  A    between atoms: _416  and  _419
REMARK  173  A    between atoms: _419  and  _420
REMARK  174  A    between atoms: _423  and  _425
REMARK  175  A    between atoms: _425  and  _426
REMARK  176  A    between atoms: _425  and  _428
REMARK  177  A    between atoms: _428  and  _429
REMARK  178  A    between atoms: _433  and  _434
REMARK  179  A    between atoms: _439  and  _441
REMARK  180  A    between atoms: _441  and  _442
REMARK  181  A    between atoms: _441  and  _444
REMARK  182  A    between atoms: _444  and  _445
REMARK  183  A    between atoms: _447  and  _449
REMARK  184  A    between atoms: _449  and  _450
REMARK  185  A    between atoms: _449  and  _452
REMARK  186  A    between atoms: _454  and  _456
REMARK  187  A    between atoms: _456  and  _457
REMARK  188  A    between atoms: _460  and  _462
REMARK  189  A    between atoms: _462  and  _463
REMARK  190  A    between atoms: _462  and  _465
REMARK  191  A    between atoms: _465  and  _466
REMARK  192  A    between atoms: _469  and  _471
REMARK  193  A    between atoms: _471  and  _472
REMARK  194  A    between atoms: _471  and  _474
REMARK  195  A    between atoms: _474  and  _475
REMARK  196  A    between atoms: _477  and  _479
REMARK  197  A    between atoms: _479  and  _480
REMARK  198  A    between atoms: _482  and  _484
REMARK  199  A    between atoms: _484  and  _485
REMARK  200  A    between atoms: _484  and  _487
REMARK  201  A    between atoms: _487  and  _488
REMARK  202  A    between atoms: _491  and  _493
REMARK  203  A    between atoms: _493  and  _494
REMARK  204  A    between atoms: _493  and  _496
REMARK  205  A    between atoms: _496  and  _497
REMARK  206  A    between atoms: _500  and  _502
REMARK  207  A    between atoms: _502  and  _503
REMARK  208  A    between atoms: _502  and  _505
REMARK  209  A    between atoms: _505  and  _506
REMARK                            x       y       z     vdW  Elec       q    Type
REMARK                         _______ _______ _______ _____ _____    ______ ____
ROOT
ATOM      1  C   ILE A   5       2.023  13.551  54.736  0.00  0.00    +0.244 C 
ATOM      2  O   ILE A   5       2.582  12.453  54.830  0.00  0.00    -0.273 OA
ATOM      3  N   PRO A   6       1.546  14.022  53.568  0.00  0.00    -0.272 N 
ATOM      4  CD  PRO A   6       0.739  15.231  53.317  0.00  0.00    +0.094 C 
ATOM      5  CG  PRO A   6       0.102  14.939  52.001  0.00  0.00    +0.024 C 
ATOM      6  CB  PRO A   6       1.123  14.119  51.268  0.00  0.00    +0.031 C 
ATOM      7  CA  PRO A   6       1.706  13.220  52.359  0.00  0.00    +0.152 C 
ENDROOT
BRANCH   7   8
ATOM      8  C   PRO A   6       3.173  12.881  52.082  0.00  0.00    +0.241 C 
ATOM      9  O   PRO A   6       4.061  13.707  52.323  0.00  0.00    -0.273 OA
ATOM     10  N   THR A   7       3.404  11.657  51.624  0.00  0.00    -0.295 N 
ATOM     11  H   THR A   7       2.591  11.039  51.426  0.00  0.00    +0.150 HD
BRANCH  10  12
ATOM     12  CA  THR A   7       4.748  11.138  51.385  0.00  0.00    +0.176 C 
BRANCH  12  13
ATOM     13  C   THR A   7       5.196  11.487  49.968  0.00  0.00    +0.243 C 
ATOM     14  N   VAL A   8       6.263  12.273  49.859  0.00  0.00    -0.297 N 
ATOM     15  H   VAL A   8       6.769  12.561  50.721  0.00  0.00    +0.150 HD
ATOM     16  O   THR A   7       4.587  11.044  49.000  0.00  0.00    -0.273 OA
BRANCH  14  17
ATOM     17  CA  VAL A   8       6.748  12.746  48.553  0.00  0.00    +0.149 C 
BRANCH  17  18
ATOM     18  C   VAL A   8       7.542  11.697  47.779  0.00  0.00    +0.241 C 
ATOM     19  N   GLY A   9       8.161  10.770  48.502  0.00  0.00    -0.295 N 
ATOM     20  H   GLY A   9       8.092  10.813  49.539  0.00  0.00    +0.150 HD
ATOM     21  O   VAL A   8       7.592  11.734  46.544  0.00  0.00    -0.273 OA
BRANCH  19  22
ATOM     22  CA  GLY A   9       8.933   9.695  47.893  0.00  0.00    +0.176 C 
BRANCH  22  23
ATOM     23  C   GLY A   9       8.540   8.336  48.436  0.00  0.00    +0.243 C 
ATOM     24  N   PHE A  10       9.167   7.959  49.546  0.00  0.00    -0.297 N 
ATOM     25  H   PHE A  10       9.878   8.597  49.957  0.00  0.00    +0.150 HD
ATOM     26  O   GLY A   9       7.703   7.645  47.862  0.00  0.00    -0.273 OA
BRANCH  24  27
ATOM     27  CA  PHE A  10       8.903   6.696  50.210  0.00  0.00    +0.153 C 
BRANCH  27  28
ATOM     28  C   PHE A  10       9.294   6.818  51.676  0.00  0.00    +0.241 C 
ATOM     29  N   ASN A  11       8.813   5.872  52.476  0.00  0.00    -0.298 N 
ATOM     30  H   ASN A  11       8.028   5.282  52.134  0.00  0.00    +0.150 HD
ATOM     31  O   PHE A  10      10.006   7.743  52.065  0.00  0.00    -0.273 OA
BRANCH  29  32
ATOM     32  CA  ASN A  11       9.338   5.627  53.810  0.00  0.00    +0.146 C 
BRANCH  32  33
ATOM     33  C   ASN A  11       9.728   4.160  53.814  0.00  0.00    +0.227 C 
ATOM     34  O   ASN A  11       9.132   3.360  53.101  0.00  0.00    -0.286 OA
ENDBRANCH  32  33
BRANCH  32  35
ATOM     35  CB  ASN A  11       8.270   5.871  54.888  0.00  0.00    +0.112 C 
BRANCH  35  36
ATOM     36  CG  ASN A  11       7.720   7.277  54.867  0.00  0.00    +0.222 C 
ATOM     37  OD1 ASN A  11       8.440   8.244  55.108  0.00  0.00    -0.275 OA
ATOM     38  ND2 ASN A  11       6.422   7.400  54.603  0.00  0.00    -0.329 N 
ATOM     39 HD21 ASN A  11       5.980   8.341  54.595  0.00  0.00    +0.145 HD
ATOM     40 HD22 ASN A  11       5.849   6.555  54.404  0.00  0.00    +0.145 HD
ENDBRANCH  35  36
ENDBRANCH  32  35
ENDBRANCH  29  32
ENDBRANCH  27  28
BRANCH  27  41
ATOM     41  CB  PHE A  10       9.715   5.561  49.567  0.00  0.00    +0.055 C 
BRANCH  41  42
ATOM     42  CG  PHE A  10      11.211   5.740  49.707  0.00  0.00    -0.020 A 
ATOM     43  CD2 PHE A  10      11.900   5.166  50.775  0.00  0.00    -0.004 A 
ATOM     44  CE2 PHE A  10      13.284   5.349  50.918  0.00  0.00    -0.000 A 
ATOM     45  CZ  PHE A  10      13.980   6.125  49.985  0.00  0.00    -0.000 A 
ATOM     46  CE1 PHE A  10      13.300   6.708  48.923  0.00  0.00    -0.000 A 
ATOM     47  CD1 PHE A  10      11.920   6.519  48.788  0.00  0.00    -0.004 A 
ENDBRANCH  41  42
ENDBRANCH  27  41
ENDBRANCH  24  27
ENDBRANCH  22  23
ENDBRANCH  19  22
ENDBRANCH  17  18
BRANCH  17  48
ATOM     48  CB  VAL A   8       7.564  14.060  48.675  0.00  0.00    +0.027 C 
ATOM     49  CG2 VAL A   8       8.855  13.858  49.498  0.00  0.00    +0.002 C 
ATOM     50  CG1 VAL A   8       6.698  15.173  49.248  0.00  0.00    +0.002 C 
ENDBRANCH  17  48
ENDBRANCH  14  17
ENDBRANCH  12  13
BRANCH  12  51
ATOM     51  CB  THR A   7       4.779   9.605  51.581  0.00  0.00    +0.137 C 
ATOM     52  CG2 THR A   7       6.202   9.064  51.500  0.00  0.00    +0.034 C 
BRANCH  51  53
ATOM     53  OG1 THR A   7       4.229   9.284  52.868  0.00  0.00    -0.382 OA
ATOM     54  HG1 THR A   7       3.295   9.607  52.916  0.00  0.00    +0.210 HD
ENDBRANCH  51  53
ENDBRANCH  12  51
ENDBRANCH  10  12
ENDBRANCH   7   8
BRANCH   1  55
ATOM     55  CA  ILE A   5       1.826  14.409  55.985  0.00  0.00    +0.149 C 
BRANCH  55  58
ATOM     56  C   THR A   4       0.996  13.388  58.059  0.00  0.00    +0.243 C 
ATOM     57  O   THR A   4       0.079  14.200  58.221  0.00  0.00    -0.273 OA
ATOM     58  N   ILE A   5       1.945  13.513  57.135  0.00  0.00    -0.297 N 
ATOM     59  H   ILE A   5       2.812  12.947  57.235  0.00  0.00    +0.150 HD
BRANCH  56  60
ATOM     60  CA  THR A   4       1.122  12.161  58.951  0.00  0.00    +0.176 C 
BRANCH  60  63
ATOM     61  C   THR A   3       0.724  12.784  61.272  0.00  0.00    +0.243 C 
ATOM     62  O   THR A   3       1.812  13.361  61.370  0.00  0.00    -0.273 OA
ATOM     63  N   THR A   4       0.281  12.250  60.141  0.00  0.00    -0.295 N 
ATOM     64  H   THR A   4      -0.692  11.885  60.101  0.00  0.00    +0.150 HD
BRANCH  61  65
ATOM     65  CA  THR A   3      -0.201  12.646  62.479  0.00  0.00    +0.176 C 
BRANCH  65  67
ATOM     66  C   VAL A   2       0.314  10.428  63.387  0.00  0.00    +0.241 C 
ATOM     67  N   THR A   3       0.442  11.752  63.437  0.00  0.00    -0.295 N 
ATOM     68  H   THR A   3       1.025  12.167  64.191  0.00  0.00    +0.150 HD
ATOM     69  O   VAL A   2      -0.442   9.845  62.615  0.00  0.00    -0.273 OA
BRANCH  66  70
ATOM     70  CA  VAL A   2       1.157   9.640  64.374  0.00  0.00    +0.148 C 
BRANCH  70  73
ATOM     71  C   SER A   1       0.004   7.962  65.702  0.00  0.00    +0.241 C 
ATOM     72  O   SER A   1      -0.049   8.700  66.689  0.00  0.00    -0.274 OA
ATOM     73  N   VAL A   2       0.574   8.319  64.559  0.00  0.00    -0.297 N 
ATOM     74  H   VAL A   2       0.605   7.637  63.774  0.00  0.00    +0.150 HD
BRANCH  71  75
ATOM     75  CA  SER A   1      -0.567   6.551  65.748  0.00  0.00    +0.174 C 
BRANCH  75  76
ATOM     76  N   SER A   1       0.038   5.853  66.863  0.00  0.00    -0.236 NA
ATOM     77  H   SER A   1      -0.456   5.836  67.778  0.00  0.00    +0.142 HD
ENDBRANCH  75  76
BRANCH  75  78
ATOM     78  CB  SER A   1      -2.088   6.586  65.905  0.00  0.00    +0.163 C 
BRANCH  78  79
ATOM     79  OG  SER A   1      -2.429   7.324  67.061  0.00  0.00    -0.380 OA
ATOM     80  H   SER A   1      -3.414   7.345  67.159  0.00  0.00    +0.211 HD
ENDBRANCH  78  79
ENDBRANCH  75  78
ENDBRANCH  71  75
ENDBRANCH  70  73
BRANCH  70  81
ATOM     81  CB  VAL A   2       2.628   9.555  63.883  0.00  0.00    +0.027 C 
ATOM     82  CG2 VAL A   2       3.517   8.903  64.948  0.00  0.00    +0.002 C 
ATOM     83  CG1 VAL A   2       2.724   8.794  62.559  0.00  0.00    +0.002 C 
ENDBRANCH  70  81
ENDBRANCH  66  70
ENDBRANCH  65  67
BRANCH  65  84
ATOM     84  CB  THR A   3      -0.486  14.029  63.111  0.00  0.00    +0.137 C 
ATOM     85  CG2 THR A   3      -1.162  14.971  62.109  0.00  0.00    +0.034 C 
BRANCH  84  86
ATOM     86  OG1 THR A   3      -1.350  13.859  64.241  0.00  0.00    -0.382 OA
ATOM     87  HG1 THR A   3      -1.535  14.742  64.649  0.00  0.00    +0.210 HD
ENDBRANCH  84  86
ENDBRANCH  65  84
ENDBRANCH  61  65
ENDBRANCH  60  63
BRANCH  60  88
ATOM     88  CB  THR A   4       0.780  10.921  58.105  0.00  0.00    +0.137 C 
ATOM     89  CG2 THR A   4       1.044   9.636  58.890  0.00  0.00    +0.034 C 
BRANCH  88  90
ATOM     90  OG1 THR A   4      -0.597  10.976  57.703  0.00  0.00    -0.382 OA
ATOM     91  HG1 THR A   4      -0.813  10.177  57.159  0.00  0.00    +0.210 HD
ENDBRANCH  88  90
ENDBRANCH  60  88
ENDBRANCH  56  60
ENDBRANCH  55  58
BRANCH  55  92
ATOM     92  CB  ILE A   5       2.839  15.576  56.038  0.00  0.00    +0.027 C 
ATOM     93  CG2 ILE A   5       2.600  16.429  57.288  0.00  0.00    +0.002 C 
BRANCH  92  94
ATOM     94  CG1 ILE A   5       4.279  15.056  55.959  0.00  0.00    +0.002 C 
ATOM     95  CD1 ILE A   5       5.315  16.141  55.805  0.00  0.00    +0.000 C 
ENDBRANCH  92  94
ENDBRANCH  55  92
ENDBRANCH   1  55
TORSDOF 37
REMARK  Name = ../refined-set-2016/4kax/4kax_pocket.pdb
REMARK  209 active torsions:
REMARK  status: ('A' for Active; 'I' for Inactive)
REMARK    1  A    between atoms: _1  and  _3
REMARK    2  A    between atoms: _3  and  _4
REMARK    3  A    between atoms: _3  and  _6
REMARK    4  A    between atoms: _6  and  _7
REMARK    5  A    between atoms: _7  and  _8
REMARK    6  A    between atoms: _10  and  _12
REMARK    7  A    between atoms: _12  and  _13
REMARK    8  A    between atoms: _12  and  _15
REMARK    9  A    between atoms: _15  and  _16
REMARK   10  A    between atoms: _19  and  _21
REMARK   11  A    between atoms: _21  and  _22
REMARK   12  A    between atoms: _24  and  _26
REMARK   13  A    between atoms: _26  and  _27
REMARK   14  A    between atoms: _26  and  _29
REMARK   15  A    between atoms: _29  and  _30
REMARK   16  A    between atoms: _33  and  _35
REMARK   17  A    between atoms: _35  and  _36
REMARK   18  A    between atoms: _35  and  _38
REMARK   19  A    between atoms: _38  and  _39
REMARK   20  A    between atoms: _42  and  _44
REMARK   21  A    between atoms: _44  and  _45
REMARK   22  A    between atoms: _48  and  _50
REMARK   23  A    between atoms: _50  and  _51
REMARK   24  A    between atoms: _54  and  _56
REMARK   25  A    between atoms: _56  and  _57
REMARK   26  A    between atoms: _59  and  _61
REMARK   27  A    between atoms: _61  and  _62
REMARK   28  A    between atoms: _61  and  _64
REMARK   29  A    between atoms: _64  and  _65
REMARK   30  A    between atoms: _65  and  _66
REMARK   31  A    between atoms: _66  and  _67
REMARK   32  A    between atoms: _67  and  _68
REMARK   33  A    between atoms: _72  and  _74
REMARK   34  A    between atoms: _74  and  _75
REMARK   35  A    between atoms: _74  and  _77
REMARK   36  A    between atoms: _77  and  _78
REMARK   37  A    between atoms: _81  and  _83
REMARK   38  A    between atoms: _83  and  _84
REMARK   39  A    between atoms: _83  and  _86
REMARK   40  A    between atoms: _86  and  _87
REMARK   41  A    between atoms: _90  and  _92
REMARK   42  A    between atoms: _92  and  _93
REMARK   43  A    between atoms: _92  and  _95
REMARK   44  A    between atoms: _95  and  _96
REMARK   45  A    between atoms: _99  and  _101
REMARK   46  A    between atoms: _101  and  _102
REMARK   47  A    between atoms: _101  and  _104
REMARK   48  A    between atoms: _104  and  _105
REMARK   49  A    between atoms: _108  and  _110
REMARK   50  A    between atoms: _110  and  _111
REMARK   51  A    between atoms: _110  and  _113
REMARK   52  A    between atoms: _113  and  _114
REMARK   53  A    between atoms: _119  and  _120
REMARK   54  A    between atoms: _122  and  _124
REMARK   55  A    between atoms: _124  and  _125
REMARK   56  A    between atoms: _124  and  _127
REMARK   57  A    between atoms: _127  and  _128
REMARK   58  A    between atoms: _128  and  _129
REMARK   59  A    between atoms: _129  and  _130
REMARK   60  A    between atoms: _130  and  _131
REMARK   61  A    between atoms: _135  and  _137
REMARK   62  A    between atoms: _137  and  _138
REMARK   63  A    between atoms: _137  and  _140
REMARK   64  A    between atoms: _140  and  _141
REMARK   65  A    between atoms: _143  and  _145
REMARK   66  A    between atoms: _145  and  _146
REMARK   67  A    between atoms: _145  and  _148
REMARK   68  A    between atoms: _151  and  _153
REMARK   69  A    between atoms: _153  and  _154
REMARK   70  A    between atoms: _153  and  _156
REMARK   71  A    between atoms: _156  and  _157
REMARK   72  A    between atoms: _160  and  _162
REMARK   73  A    between atoms: _162  and  _163
REMARK   74  A    between atoms: _162  and  _165
REMARK   75  A    between atoms: _165  and  _166
REMARK   76  A    between atoms: _169  and  _171
REMARK   77  A    between atoms: _171  and  _172
REMARK   78  A    between atoms: _171  and  _174
REMARK   79  A    between atoms: _174  and  _175
REMARK   80  A    between atoms: _179  and  _180
REMARK   81  A    between atoms: _185  and  _187
REMARK   82  A    between atoms: _187  and  _188
REMARK   83  A    between atoms: _187  and  _190
REMARK   84  A    between atoms: _190  and  _191
REMARK   85  A    between atoms: _194  and  _196
REMARK   86  A    between atoms: _196  and  _197
REMARK   87  A    between atoms: _196  and  _199
REMARK   88  A    between atoms: _202  and  _204
REMARK   89  A    between atoms: _204  and  _205
REMARK   90  A    between atoms: _207  and  _209
REMARK   91  A    between atoms: _209  and  _210
REMARK   92  A    between atoms: _209  and  _212
REMARK   93  A    between atoms: _212  and  _213
REMARK   94  A    between atoms: _219  and  _221
REMARK   95  A    between atoms: _221  and  _222
REMARK   96  A    between atoms: _221  and  _224
REMARK   97  A    between atoms: _224  and  _225
REMARK   98  A    between atoms: _230  and  _232
REMARK   99  A    between atoms: _232  and  _233
REMARK  100  A    between atoms: _232  and  _235
REMARK  101  A    between atoms: _235  and  _236
REMARK  102  A    between atoms: _239  and  _241
REMARK  103  A    between atoms: _241  and  _242
REMARK  104  A    between atoms: _241  and  _244
REMARK  105  A    between atoms: _247  and  _249
REMARK  106  A    between atoms: _249  and  _250
REMARK  107  A    between atoms: _252  and  _254
REMARK  108  A    between atoms: _254  and  _255
REMARK  109  A    between atoms: _257  and  _259
REMARK  110  A    between atoms: _259  and  _260
REMARK  111  A    between atoms: _259  and  _262
REMARK  112  A    between atoms: _262  and  _263
REMARK  113  A    between atoms: _266  and  _268
REMARK  114  A    between atoms: _268  and  _269
REMARK  115  A    between atoms: _268  and  _271
REMARK  116  A    between atoms: _271  and  _272
REMARK  117  A    between atoms: _275  and  _277
REMARK  118  A    between atoms: _277  and  _278
REMARK  119  A    between atoms: _277  and  _280
REMARK  120  A    between atoms: _280  and  _281
REMARK  121  A    between atoms: _284  and  _286
REMARK  122  A    between atoms: _286  and  _287
REMARK  123  A    between atoms: _286  and  _289
REMARK  124  A    between atoms: _289  and  _290
REMARK  125  A    between atoms: _290  and  _291
REMARK  126  A    between atoms: _291  and  _292
REMARK  127  A    between atoms: _301  and  _303
REMARK  128  A    between atoms: _303  and  _304
REMARK  129  A    between atoms: _303  and  _306
REMARK  130  A    between atoms: _306  and  _307
REMARK  131  A    between atoms: _317  and  _319
REMARK  132  A    between atoms: _319  and  _320
REMARK  133  A    between atoms: _319  and  _322
REMARK  134  A    between atoms: _325  and  _327
REMARK  135  A    between atoms: _327  and  _328
REMARK  136  A    between atoms: _327  and  _330
REMARK  137  A    between atoms: _333  and  _335
REMARK  138  A    between atoms: _335  and  _336
REMARK  139  A    between atoms: _335  and  _338
REMARK  140  A    between atoms: _338  and  _339
REMARK  141  A    between atoms: _342  and  _344
REMARK  142  A    between atoms: _344  and  _345
REMARK  143  A    between atoms: _344  and  _347
REMARK  144  A    between atoms: _349  and  _351
REMARK  145  A    between atoms: _351  and  _352
REMARK  146  A    between atoms: _355  and  _357
REMARK  147  A    between atoms: _357  and  _358
REMARK  148  A    between atoms: _357  and  _360
REMARK  149  A    between atoms: _360  and  _361
REMARK  150  A    between atoms: _361  and  _362
REMARK  151  A    between atoms: _362  and  _363
REMARK  152  A    between atoms: _372  and  _374
REMARK  153  A    between atoms: _374  and  _375
REMARK  154  A    between atoms: _378  and  _380
REMARK  155  A    between atoms: _380  and  _381
REMARK  156  A    between atoms: _380  and  _383
REMARK  157  A    between atoms: _383  and  _384
REMARK  158  A    between atoms: _389  and  _391
REMARK  159  A    between atoms: _391  and  _392
REMARK  160  A    between atoms: _391  and  _394
REMARK  161  A    between atoms: _394  and  _395
REMARK  162  A    between atoms: _395  and  _396
REMARK  163  A    between atoms: _396  and  _397
REMARK  164  A    between atoms: _397  and  _398
REMARK  165  A    between atoms: _402  and  _404
REMARK  166  A    between atoms: _404  and  _405
REMARK  167  A    between atoms: _404  and  _407
REMARK  168  A    between atoms: _407  and  _408
REMARK  169  A    between atoms: _408  and  _409
REMARK  170  A    between atoms: _414  and  _416
REMARK  171  A    between atoms: _416  and  _417
REMARK  172  A    between atoms: _416  and  _419
REMARK  173  A    between atoms: _419  and  _420
REMARK  174  A    between atoms: _423  and  _425
REMARK  175  A    between atoms: _425  and  _426
REMARK  176  A    between atoms: _425  and  _428
REMARK  177  A    between atoms: _428  and  _429
REMARK  178  A    between atoms: _433  and  _434
REMARK  179  A    between atoms: _439  and  _441
REMARK  180  A    between atoms: _441  and  _442
REMARK  181  A    between atoms: _441  and  _444
REMARK  182  A    between atoms: _444  and  _445
REMARK  183  A    between atoms: _447  and  _449
REMARK  184  A    between atoms: _449  and  _450
REMARK  185  A    between atoms: _449  and  _452
REMARK  186  A    between atoms: _454  and  _456
REMARK  187  A    between atoms: _456  and  _457
REMARK  188  A    between atoms: _460  and  _462
REMARK  189  A    between atoms: _462  and  _463
REMARK  190  A    between atoms: _462  and  _465
REMARK  191  A    between atoms: _465  and  _466
REMARK  192  A    between atoms: _469  and  _471
REMARK  193  A    between atoms: _471  and  _472
REMARK  194  A    between atoms: _471  and  _474
REMARK  195  A    between atoms: _474  and  _475
REMARK  196  A    between atoms: _477  and  _479
REMARK  197  A    between atoms: _479  and  _480
REMARK  198  A    between atoms: _482  and  _484
REMARK  199  A    between atoms: _484  and  _485
REMARK  200  A    between atoms: _484  and  _487
REMARK  201  A    between atoms: _487  and  _488
REMARK  202  A    between atoms: _491  and  _493
REMARK  203  A    between atoms: _493  and  _494
REMARK  204  A    between atoms: _493  and  _496
REMARK  205  A    between atoms: _496  and  _497
REMARK  206  A    between atoms: _500  and  _502
REMARK  207  A    between atoms: _502  and  _503
REMARK  208  A    between atoms: _502  and  _505
REMARK  209  A    between atoms: _505  and  _506
REMARK                            x       y       z     vdW  Elec       q    Type
REMARK                         _______ _______ _______ _____ _____    ______ ____
ROOT
ATOM      1  C   GLY A   3       2.954   7.411  46.957  0.00  0.00    +0.243 C 
ATOM      2  N   GLY A   4       1.693   7.714  47.253  0.00  0.00    -0.295 N 
ATOM      3  H   GLY A   4       1.482   8.225  48.134  0.00  0.00    +0.150 HD
ATOM      4  O   GLY A   3       3.289   6.904  45.880  0.00  0.00    -0.273 OA
ENDROOT
BRANCH   1   5
ATOM      5  CA  GLY A   3       3.982   7.726  48.029  0.00  0.00    +0.176 C 
BRANCH   5   8
ATOM      6  C   VAL A   2       4.646   5.391  48.362  0.00  0.00    +0.241 C 
ATOM      7  O   VAL A   2       3.482   5.012  48.446  0.00  0.00    -0.273 OA
ATOM      8  N   GLY A   3       4.983   6.667  48.171  0.00  0.00    -0.295 N 
ATOM      9  H   GLY A   3       5.991   6.918  48.121  0.00  0.00    +0.150 HD
BRANCH   6  10
ATOM     10  CA  VAL A   2       5.798   4.392  48.497  0.00  0.00    +0.148 C 
BRANCH  10  13
ATOM     11  C   ASP A   1       6.098   3.634  50.789  0.00  0.00    +0.239 C 
ATOM     12  O   ASP A   1       6.745   4.630  51.075  0.00  0.00    -0.274 OA
ATOM     13  N   VAL A   2       5.561   3.445  49.592  0.00  0.00    -0.297 N 
ATOM     14  H   VAL A   2       4.962   2.611  49.426  0.00  0.00    +0.150 HD
BRANCH  11  15
ATOM     15  CA  ASP A   1       5.867   2.525  51.820  0.00  0.00    +0.156 C 
BRANCH  15  16
ATOM     16  N   ASP A   1       7.099   1.753  51.955  0.00  0.00    -0.238 NA
ATOM     17  H   ASP A   1       7.863   2.152  52.536  0.00  0.00    +0.142 HD
ENDBRANCH  15  16
BRANCH  15  18
ATOM     18  CB  ASP A   1       5.460   3.093  53.200  0.00  0.00    +0.140 C 
BRANCH  18  19
ATOM     19  CG  ASP A   1       4.531   4.297  53.114  0.00  0.00    +0.367 C 
ATOM     20  OD2 ASP A   1       4.574   5.126  54.042  0.00  0.00    -0.246 OA
ATOM     21  OD1 ASP A   1       3.756   4.418  52.145  0.00  0.00    -0.246 OA
ENDBRANCH  18  19
ENDBRANCH  15  18
ENDBRANCH  11  15
ENDBRANCH  10  13
BRANCH  10  22
ATOM     22  CB  VAL A   2       6.073   3.657  47.168  0.00  0.00    +0.027 C 
ATOM     23  CG2 VAL A   2       7.159   2.599  47.372  0.00  0.00    +0.002 C 
ATOM     24  CG1 VAL A   2       6.494   4.649  46.081  0.00  0.00    +0.002 C 
ENDBRANCH  10  22
ENDBRANCH   6  10
ENDBRANCH   5   8
ENDBRANCH   1   5
BRANCH   2  25
ATOM     25  CA  GLY A   4       0.603   7.340  46.361  0.00  0.00    +0.176 C 
BRANCH  25  26
ATOM     26  C   GLY A   4       0.029   8.468  45.523  0.00  0.00    +0.243 C 
ATOM     27  N   LEU A   5       0.609   9.666  45.623  0.00  0.00    -0.297 N 
ATOM     28  H   LEU A   5       1.395   9.806  46.290  0.00  0.00    +0.150 HD
ATOM     29  O   GLY A   4      -0.944   8.255  44.796  0.00  0.00    -0.273 OA
BRANCH  27  30
ATOM     30  CA  LEU A   5       0.146  10.786  44.799  0.00  0.00    +0.149 C 
BRANCH  30  31
ATOM     31  C   LEU A   5       0.271  10.473  43.301  0.00  0.00    +0.241 C 
ATOM     32  O   LEU A   5       1.205   9.796  42.872  0.00  0.00    -0.273 OA
ATOM     33  N   ASP A   6      -0.693  10.963  42.522  0.00  0.00    -0.298 N 
ATOM     34  H   ASP A   6      -1.482  11.467  42.975  0.00  0.00    +0.150 HD
BRANCH  33  35
ATOM     35  CA  ASP A   6      -0.703  10.830  41.057  0.00  0.00    +0.148 C 
BRANCH  35  36
ATOM     36  C   ASP A   6       0.655  10.795  40.383  0.00  0.00    +0.227 C 
ATOM     37  O   ASP A   6       0.994   9.844  39.682  0.00  0.00    -0.286 OA
ENDBRANCH  35  36
BRANCH  35  38
ATOM     38  CB  ASP A   6      -1.471  12.006  40.446  0.00  0.00    +0.142 C 
BRANCH  38  39
ATOM     39  CG  ASP A   6      -2.934  11.761  40.391  0.00  0.00    +0.367 C 
ATOM     40  OD2 ASP A   6      -3.338  10.591  40.555  0.00  0.00    -0.246 OA
ATOM     41  OD1 ASP A   6      -3.678  12.734  40.160  0.00  0.00    -0.246 OA
ENDBRANCH  38  39
ENDBRANCH  35  38
ENDBRANCH  33  35
ENDBRANCH  30  31
BRANCH  30  42
ATOM     42  CB  LEU A   5       0.886  12.079  45.146  0.00  0.00    +0.029 C 
BRANCH  42  43
ATOM     43  CG  LEU A   5       0.117  13.383  44.889  0.00  0.00    +0.002 C 
ATOM     44  CD2 LEU A   5      -1.011  13.572  45.912  0.00  0.00    +0.000 C 
ATOM     45  CD1 LEU A   5       1.061  14.580  44.893  0.00  0.00    +0.000 C 
ENDBRANCH  42  43
ENDBRANCH  30  42
ENDBRANCH  27  30
ENDBRANCH  25  26
ENDBRANCH   2  25
TORSDOF 19
REMARK  Name = ../refined-set-2016/4kax/4kax_pocket.pdb
REMARK  209 active torsions:
REMARK  status: ('A' for Active; 'I' for Inactive)
REMARK    1  A    between atoms: _1  and  _3
REMARK    2  A    between atoms: _3  and  _4
REMARK    3  A    between atoms: _3  and  _6
REMARK    4  A    between atoms: _6  and  _7
REMARK    5  A    between atoms: _7  and  _8
REMARK    6  A    between atoms: _10  and  _12
REMARK    7  A    between atoms: _12  and  _13
REMARK    8  A    between atoms: _12  and  _15
REMARK    9  A    between atoms: _15  and  _16
REMARK   10  A    between atoms: _19  and  _21
REMARK   11  A    between atoms: _21  and  _22
REMARK   12  A    between atoms: _24  and  _26
REMARK   13  A    between atoms: _26  and  _27
REMARK   14  A    between atoms: _26  and  _29
REMARK   15  A    between atoms: _29  and  _30
REMARK   16  A    between atoms: _33  and  _35
REMARK   17  A    between atoms: _35  and  _36
REMARK   18  A    between atoms: _35  and  _38
REMARK   19  A    between atoms: _38  and  _39
REMARK   20  A    between atoms: _42  and  _44
REMARK   21  A    between atoms: _44  and  _45
REMARK   22  A    between atoms: _48  and  _50
REMARK   23  A    between atoms: _50  and  _51
REMARK   24  A    between atoms: _54  and  _56
REMARK   25  A    between atoms: _56  and  _57
REMARK   26  A    between atoms: _59  and  _61
REMARK   27  A    between atoms: _61  and  _62
REMARK   28  A    between atoms: _61  and  _64
REMARK   29  A    between atoms: _64  and  _65
REMARK   30  A    between atoms: _65  and  _66
REMARK   31  A    between atoms: _66  and  _67
REMARK   32  A    between atoms: _67  and  _68
REMARK   33  A    between atoms: _72  and  _74
REMARK   34  A    between atoms: _74  and  _75
REMARK   35  A    between atoms: _74  and  _77
REMARK   36  A    between atoms: _77  and  _78
REMARK   37  A    between atoms: _81  and  _83
REMARK   38  A    between atoms: _83  and  _84
REMARK   39  A    between atoms: _83  and  _86
REMARK   40  A    between atoms: _86  and  _87
REMARK   41  A    between atoms: _90  and  _92
REMARK   42  A    between atoms: _92  and  _93
REMARK   43  A    between atoms: _92  and  _95
REMARK   44  A    between atoms: _95  and  _96
REMARK   45  A    between atoms: _99  and  _101
REMARK   46  A    between atoms: _101  and  _102
REMARK   47  A    between atoms: _101  and  _104
REMARK   48  A    between atoms: _104  and  _105
REMARK   49  A    between atoms: _108  and  _110
REMARK   50  A    between atoms: _110  and  _111
REMARK   51  A    between atoms: _110  and  _113
REMARK   52  A    between atoms: _113  and  _114
REMARK   53  A    between atoms: _119  and  _120
REMARK   54  A    between atoms: _122  and  _124
REMARK   55  A    between atoms: _124  and  _125
REMARK   56  A    between atoms: _124  and  _127
REMARK   57  A    between atoms: _127  and  _128
REMARK   58  A    between atoms: _128  and  _129
REMARK   59  A    between atoms: _129  and  _130
REMARK   60  A    between atoms: _130  and  _131
REMARK   61  A    between atoms: _135  and  _137
REMARK   62  A    between atoms: _137  and  _138
REMARK   63  A    between atoms: _137  and  _140
REMARK   64  A    between atoms: _140  and  _141
REMARK   65  A    between atoms: _143  and  _145
REMARK   66  A    between atoms: _145  and  _146
REMARK   67  A    between atoms: _145  and  _148
REMARK   68  A    between atoms: _151  and  _153
REMARK   69  A    between atoms: _153  and  _154
REMARK   70  A    between atoms: _153  and  _156
REMARK   71  A    between atoms: _156  and  _157
REMARK   72  A    between atoms: _160  and  _162
REMARK   73  A    between atoms: _162  and  _163
REMARK   74  A    between atoms: _162  and  _165
REMARK   75  A    between atoms: _165  and  _166
REMARK   76  A    between atoms: _169  and  _171
REMARK   77  A    between atoms: _171  and  _172
REMARK   78  A    between atoms: _171  and  _174
REMARK   79  A    between atoms: _174  and  _175
REMARK   80  A    between atoms: _179  and  _180
REMARK   81  A    between atoms: _185  and  _187
REMARK   82  A    between atoms: _187  and  _188
REMARK   83  A    between atoms: _187  and  _190
REMARK   84  A    between atoms: _190  and  _191
REMARK   85  A    between atoms: _194  and  _196
REMARK   86  A    between atoms: _196  and  _197
REMARK   87  A    between atoms: _196  and  _199
REMARK   88  A    between atoms: _202  and  _204
REMARK   89  A    between atoms: _204  and  _205
REMARK   90  A    between atoms: _207  and  _209
REMARK   91  A    between atoms: _209  and  _210
REMARK   92  A    between atoms: _209  and  _212
REMARK   93  A    between atoms: _212  and  _213
REMARK   94  A    between atoms: _219  and  _221
REMARK   95  A    between atoms: _221  and  _222
REMARK   96  A    between atoms: _221  and  _224
REMARK   97  A    between atoms: _224  and  _225
REMARK   98  A    between atoms: _230  and  _232
REMARK   99  A    between atoms: _232  and  _233
REMARK  100  A    between atoms: _232  and  _235
REMARK  101  A    between atoms: _235  and  _236
REMARK  102  A    between atoms: _239  and  _241
REMARK  103  A    between atoms: _241  and  _242
REMARK  104  A    between atoms: _241  and  _244
REMARK  105  A    between atoms: _247  and  _249
REMARK  106  A    between atoms: _249  and  _250
REMARK  107  A    between atoms: _252  and  _254
REMARK  108  A    between atoms: _254  and  _255
REMARK  109  A    between atoms: _257  and  _259
REMARK  110  A    between atoms: _259  and  _260
REMARK  111  A    between atoms: _259  and  _262
REMARK  112  A    between atoms: _262  and  _263
REMARK  113  A    between atoms: _266  and  _268
REMARK  114  A    between atoms: _268  and  _269
REMARK  115  A    between atoms: _268  and  _271
REMARK  116  A    between atoms: _271  and  _272
REMARK  117  A    between atoms: _275  and  _277
REMARK  118  A    between atoms: _277  and  _278
REMARK  119  A    between atoms: _277  and  _280
REMARK  120  A    between atoms: _280  and  _281
REMARK  121  A    between atoms: _284  and  _286
REMARK  122  A    between atoms: _286  and  _287
REMARK  123  A    between atoms: _286  and  _289
REMARK  124  A    between atoms: _289  and  _290
REMARK  125  A    between atoms: _290  and  _291
REMARK  126  A    between atoms: _291  and  _292
REMARK  127  A    between atoms: _301  and  _303
REMARK  128  A    between atoms: _303  and  _304
REMARK  129  A    between atoms: _303  and  _306
REMARK  130  A    between atoms: _306  and  _307
REMARK  131  A    between atoms: _317  and  _319
REMARK  132  A    between atoms: _319  and  _320
REMARK  133  A    between atoms: _319  and  _322
REMARK  134  A    between atoms: _325  and  _327
REMARK  135  A    between atoms: _327  and  _328
REMARK  136  A    between atoms: _327  and  _330
REMARK  137  A    between atoms: _333  and  _335
REMARK  138  A    between atoms: _335  and  _336
REMARK  139  A    between atoms: _335  and  _338
REMARK  140  A    between atoms: _338  and  _339
REMARK  141  A    between atoms: _342  and  _344
REMARK  142  A    between atoms: _344  and  _345
REMARK  143  A    between atoms: _344  and  _347
REMARK  144  A    between atoms: _349  and  _351
REMARK  145  A    between atoms: _351  and  _352
REMARK  146  A    between atoms: _355  and  _357
REMARK  147  A    between atoms: _357  and  _358
REMARK  148  A    between atoms: _357  and  _360
REMARK  149  A    between atoms: _360  and  _361
REMARK  150  A    between atoms: _361  and  _362
REMARK  151  A    between atoms: _362  and  _363
REMARK  152  A    between atoms: _372  and  _374
REMARK  153  A    between atoms: _374  and  _375
REMARK  154  A    between atoms: _378  and  _380
REMARK  155  A    between atoms: _380  and  _381
REMARK  156  A    between atoms: _380  and  _383
REMARK  157  A    between atoms: _383  and  _384
REMARK  158  A    between atoms: _389  and  _391
REMARK  159  A    between atoms: _391  and  _392
REMARK  160  A    between atoms: _391  and  _394
REMARK  161  A    between atoms: _394  and  _395
REMARK  162  A    between atoms: _395  and  _396
REMARK  163  A    between atoms: _396  and  _397
REMARK  164  A    between atoms: _397  and  _398
REMARK  165  A    between atoms: _402  and  _404
REMARK  166  A    between atoms: _404  and  _405
REMARK  167  A    between atoms: _404  and  _407
REMARK  168  A    between atoms: _407  and  _408
REMARK  169  A    between atoms: _408  and  _409
REMARK  170  A    between atoms: _414  and  _416
REMARK  171  A    between atoms: _416  and  _417
REMARK  172  A    between atoms: _416  and  _419
REMARK  173  A    between atoms: _419  and  _420
REMARK  174  A    between atoms: _423  and  _425
REMARK  175  A    between atoms: _425  and  _426
REMARK  176  A    between atoms: _425  and  _428
REMARK  177  A    between atoms: _428  and  _429
REMARK  178  A    between atoms: _433  and  _434
REMARK  179  A    between atoms: _439  and  _441
REMARK  180  A    between atoms: _441  and  _442
REMARK  181  A    between atoms: _441  and  _444
REMARK  182  A    between atoms: _444  and  _445
REMARK  183  A    between atoms: _447  and  _449
REMARK  184  A    between atoms: _449  and  _450
REMARK  185  A    between atoms: _449  and  _452
REMARK  186  A    between atoms: _454  and  _456
REMARK  187  A    between atoms: _456  and  _457
REMARK  188  A    between atoms: _460  and  _462
REMARK  189  A    between atoms: _462  and  _463
REMARK  190  A    between atoms: _462  and  _465
REMARK  191  A    between atoms: _465  and  _466
REMARK  192  A    between atoms: _469  and  _471
REMARK  193  A    between atoms: _471  and  _472
REMARK  194  A    between atoms: _471  and  _474
REMARK  195  A    between atoms: _474  and  _475
REMARK  196  A    between atoms: _477  and  _479
REMARK  197  A    between atoms: _479  and  _480
REMARK  198  A    between atoms: _482  and  _484
REMARK  199  A    between atoms: _484  and  _485
REMARK  200  A    between atoms: _484  and  _487
REMARK  201  A    between atoms: _487  and  _488
REMARK  202  A    between atoms: _491  and  _493
REMARK  203  A    between atoms: _493  and  _494
REMARK  204  A    between atoms: _493  and  _496
REMARK  205  A    between atoms: _496  and  _497
REMARK  206  A    between atoms: _500  and  _502
REMARK  207  A    between atoms: _502  and  _503
REMARK  208  A    between atoms: _502  and  _505
REMARK  209  A    between atoms: _505  and  _506
REMARK                            x       y       z     vdW  Elec       q    Type
REMARK                         _______ _______ _______ _____ _____    ______ ____
ROOT
ATOM      1  CA  ARG A   2       2.624   6.325  40.514  0.00  0.00    +0.137 C 
ENDROOT
BRANCH   1   4
ATOM      2  C   ILE A   1       4.282   7.960  41.234  0.00  0.00    +0.238 C 
ATOM      3  O   ILE A   1       5.172   7.128  41.140  0.00  0.00    -0.274 OA
ATOM      4  N   ARG A   2       3.026   7.693  40.877  0.00  0.00    -0.298 N 
ATOM      5  H   ARG A   2       2.323   8.459  40.855  0.00  0.00    +0.150 HD
BRANCH   2   6
ATOM      6  CA  ILE A   1       4.588   9.356  41.796  0.00  0.00    +0.145 C 
BRANCH   6   7
ATOM      7  N   ILE A   1       3.639  10.385  41.348  0.00  0.00    -0.238 NA
ATOM      8  H   ILE A   1       2.852  10.636  41.980  0.00  0.00    +0.142 HD
ENDBRANCH   6   7
BRANCH   6   9
ATOM      9  CB  ILE A   1       4.624   9.239  43.361  0.00  0.00    +0.025 C 
ATOM     10  CG2 ILE A   1       5.742   8.291  43.828  0.00  0.00    +0.002 C 
BRANCH   9  11
ATOM     11  CG1 ILE A   1       4.757  10.610  44.026  0.00  0.00    +0.002 C 
ATOM     12  CD1 ILE A   1       4.515  10.582  45.530  0.00  0.00    +0.000 C 
ENDBRANCH   9  11
ENDBRANCH   6   9
ENDBRANCH   2   6
ENDBRANCH   1   4
BRANCH   1  13
ATOM     13  C   ARG A   2       3.375   5.648  39.359  0.00  0.00    +0.227 C 
ATOM     14  O   ARG A   2       3.617   4.442  39.422  0.00  0.00    -0.286 OA
ENDBRANCH   1  13
BRANCH   1  15
ATOM     15  CB  ARG A   2       1.105   6.203  40.329  0.00  0.00    +0.031 C 
BRANCH  15  16
ATOM     16  CG  ARG A   2       0.365   6.361  41.642  0.00  0.00    +0.045 C 
BRANCH  16  17
ATOM     17  CD  ARG A   2      -1.127   6.203  41.468  0.00  0.00    +0.174 C 
BRANCH  17  18
ATOM     18  NE  ARG A   2      -1.830   7.067  42.408  0.00  0.00    -0.265 N 
ATOM     19  HE  ARG A   2      -1.293   7.450  43.212  0.00  0.00    +0.259 HD
ATOM     20  CZ  ARG A   2      -3.112   7.396  42.303  0.00  0.00    +0.342 C 
ATOM     21  NH2 ARG A   2      -3.659   8.201  43.202  0.00  0.00    -0.292 N 
ATOM     22 HH21 ARG A   2      -3.085   8.572  43.985  0.00  0.00    +0.255 HD
ATOM     23 HH22 ARG A   2      -4.663   8.462  43.124  0.00  0.00    +0.255 HD
ATOM     24  NH1 ARG A   2      -3.840   6.928  41.297  0.00  0.00    -0.292 N 
ATOM     25 HH11 ARG A   2      -4.844   7.187  41.217  0.00  0.00    +0.255 HD
ATOM     26 HH12 ARG A   2      -3.407   6.302  40.589  0.00  0.00    +0.255 HD
ENDBRANCH  17  18
ENDBRANCH  16  17
ENDBRANCH  15  16
ENDBRANCH   1  15
TORSDOF 10
REMARK  Name = ../refined-set-2016/4kax/4kax_pocket.pdb
REMARK  209 active torsions:
REMARK  status: ('A' for Active; 'I' for Inactive)
REMARK    1  A    between atoms: _1  and  _3
REMARK    2  A    between atoms: _3  and  _4
REMARK    3  A    between atoms: _3  and  _6
REMARK    4  A    between atoms: _6  and  _7
REMARK    5  A    between atoms: _7  and  _8
REMARK    6  A    between atoms: _10  and  _12
REMARK    7  A    between atoms: _12  and  _13
REMARK    8  A    between atoms: _12  and  _15
REMARK    9  A    between atoms: _15  and  _16
REMARK   10  A    between atoms: _19  and  _21
REMARK   11  A    between atoms: _21  and  _22
REMARK   12  A    between atoms: _24  and  _26
REMARK   13  A    between atoms: _26  and  _27
REMARK   14  A    between atoms: _26  and  _29
REMARK   15  A    between atoms: _29  and  _30
REMARK   16  A    between atoms: _33  and  _35
REMARK   17  A    between atoms: _35  and  _36
REMARK   18  A    between atoms: _35  and  _38
REMARK   19  A    between atoms: _38  and  _39
REMARK   20  A    between atoms: _42  and  _44
REMARK   21  A    between atoms: _44  and  _45
REMARK   22  A    between atoms: _48  and  _50
REMARK   23  A    between atoms: _50  and  _51
REMARK   24  A    between atoms: _54  and  _56
REMARK   25  A    between atoms: _56  and  _57
REMARK   26  A    between atoms: _59  and  _61
REMARK   27  A    between atoms: _61  and  _62
REMARK   28  A    between atoms: _61  and  _64
REMARK   29  A    between atoms: _64  and  _65
REMARK   30  A    between atoms: _65  and  _66
REMARK   31  A    between atoms: _66  and  _67
REMARK   32  A    between atoms: _67  and  _68
REMARK   33  A    between atoms: _72  and  _74
REMARK   34  A    between atoms: _74  and  _75
REMARK   35  A    between atoms: _74  and  _77
REMARK   36  A    between atoms: _77  and  _78
REMARK   37  A    between atoms: _81  and  _83
REMARK   38  A    between atoms: _83  and  _84
REMARK   39  A    between atoms: _83  and  _86
REMARK   40  A    between atoms: _86  and  _87
REMARK   41  A    between atoms: _90  and  _92
REMARK   42  A    between atoms: _92  and  _93
REMARK   43  A    between atoms: _92  and  _95
REMARK   44  A    between atoms: _95  and  _96
REMARK   45  A    between atoms: _99  and  _101
REMARK   46  A    between atoms: _101  and  _102
REMARK   47  A    between atoms: _101  and  _104
REMARK   48  A    between atoms: _104  and  _105
REMARK   49  A    between atoms: _108  and  _110
REMARK   50  A    between atoms: _110  and  _111
REMARK   51  A    between atoms: _110  and  _113
REMARK   52  A    between atoms: _113  and  _114
REMARK   53  A    between atoms: _119  and  _120
REMARK   54  A    between atoms: _122  and  _124
REMARK   55  A    between atoms: _124  and  _125
REMARK   56  A    between atoms: _124  and  _127
REMARK   57  A    between atoms: _127  and  _128
REMARK   58  A    between atoms: _128  and  _129
REMARK   59  A    between atoms: _129  and  _130
REMARK   60  A    between atoms: _130  and  _131
REMARK   61  A    between atoms: _135  and  _137
REMARK   62  A    between atoms: _137  and  _138
REMARK   63  A    between atoms: _137  and  _140
REMARK   64  A    between atoms: _140  and  _141
REMARK   65  A    between atoms: _143  and  _145
REMARK   66  A    between atoms: _145  and  _146
REMARK   67  A    between atoms: _145  and  _148
REMARK   68  A    between atoms: _151  and  _153
REMARK   69  A    between atoms: _153  and  _154
REMARK   70  A    between atoms: _153  and  _156
REMARK   71  A    between atoms: _156  and  _157
REMARK   72  A    between atoms: _160  and  _162
REMARK   73  A    between atoms: _162  and  _163
REMARK   74  A    between atoms: _162  and  _165
REMARK   75  A    between atoms: _165  and  _166
REMARK   76  A    between atoms: _169  and  _171
REMARK   77  A    between atoms: _171  and  _172
REMARK   78  A    between atoms: _171  and  _174
REMARK   79  A    between atoms: _174  and  _175
REMARK   80  A    between atoms: _179  and  _180
REMARK   81  A    between atoms: _185  and  _187
REMARK   82  A    between atoms: _187  and  _188
REMARK   83  A    between atoms: _187  and  _190
REMARK   84  A    between atoms: _190  and  _191
REMARK   85  A    between atoms: _194  and  _196
REMARK   86  A    between atoms: _196  and  _197
REMARK   87  A    between atoms: _196  and  _199
REMARK   88  A    between atoms: _202  and  _204
REMARK   89  A    between atoms: _204  and  _205
REMARK   90  A    between atoms: _207  and  _209
REMARK   91  A    between atoms: _209  and  _210
REMARK   92  A    between atoms: _209  and  _212
REMARK   93  A    between atoms: _212  and  _213
REMARK   94  A    between atoms: _219  and  _221
REMARK   95  A    between atoms: _221  and  _222
REMARK   96  A    between atoms: _221  and  _224
REMARK   97  A    between atoms: _224  and  _225
REMARK   98  A    between atoms: _230  and  _232
REMARK   99  A    between atoms: _232  and  _233
REMARK  100  A    between atoms: _232  and  _235
REMARK  101  A    between atoms: _235  and  _236
REMARK  102  A    between atoms: _239  and  _241
REMARK  103  A    between atoms: _241  and  _242
REMARK  104  A    between atoms: _241  and  _244
REMARK  105  A    between atoms: _247  and  _249
REMARK  106  A    between atoms: _249  and  _250
REMARK  107  A    between atoms: _252  and  _254
REMARK  108  A    between atoms: _254  and  _255
REMARK  109  A    between atoms: _257  and  _259
REMARK  110  A    between atoms: _259  and  _260
REMARK  111  A    between atoms: _259  and  _262
REMARK  112  A    between atoms: _262  and  _263
REMARK  113  A    between atoms: _266  and  _268
REMARK  114  A    between atoms: _268  and  _269
REMARK  115  A    between atoms: _268  and  _271
REMARK  116  A    between atoms: _271  and  _272
REMARK  117  A    between atoms: _275  and  _277
REMARK  118  A    between atoms: _277  and  _278
REMARK  119  A    between atoms: _277  and  _280
REMARK  120  A    between atoms: _280  and  _281
REMARK  121  A    between atoms: _284  and  _286
REMARK  122  A    between atoms: _286  and  _287
REMARK  123  A    between atoms: _286  and  _289
REMARK  124  A    between atoms: _289  and  _290
REMARK  125  A    between atoms: _290  and  _291
REMARK  126  A    between atoms: _291  and  _292
REMARK  127  A    between atoms: _301  and  _303
REMARK  128  A    between atoms: _303  and  _304
REMARK  129  A    between atoms: _303  and  _306
REMARK  130  A    between atoms: _306  and  _307
REMARK  131  A    between atoms: _317  and  _319
REMARK  132  A    between atoms: _319  and  _320
REMARK  133  A    between atoms: _319  and  _322
REMARK  134  A    between atoms: _325  and  _327
REMARK  135  A    between atoms: _327  and  _328
REMARK  136  A    between atoms: _327  and  _330
REMARK  137  A    between atoms: _333  and  _335
REMARK  138  A    between atoms: _335  and  _336
REMARK  139  A    between atoms: _335  and  _338
REMARK  140  A    between atoms: _338  and  _339
REMARK  141  A    between atoms: _342  and  _344
REMARK  142  A    between atoms: _344  and  _345
REMARK  143  A    between atoms: _344  and  _347
REMARK  144  A    between atoms: _349  and  _351
REMARK  145  A    between atoms: _351  and  _352
REMARK  146  A    between atoms: _355  and  _357
REMARK  147  A    between atoms: _357  and  _358
REMARK  148  A    between atoms: _357  and  _360
REMARK  149  A    between atoms: _360  and  _361
REMARK  150  A    between atoms: _361  and  _362
REMARK  151  A    between atoms: _362  and  _363
REMARK  152  A    between atoms: _372  and  _374
REMARK  153  A    between atoms: _374  and  _375
REMARK  154  A    between atoms: _378  and  _380
REMARK  155  A    between atoms: _380  and  _381
REMARK  156  A    between atoms: _380  and  _383
REMARK  157  A    between atoms: _383  and  _384
REMARK  158  A    between atoms: _389  and  _391
REMARK  159  A    between atoms: _391  and  _392
REMARK  160  A    between atoms: _391  and  _394
REMARK  161  A    between atoms: _394  and  _395
REMARK  162  A    between atoms: _395  and  _396
REMARK  163  A    between atoms: _396  and  _397
REMARK  164  A    between atoms: _397  and  _398
REMARK  165  A    between atoms: _402  and  _404
REMARK  166  A    between atoms: _404  and  _405
REMARK  167  A    between atoms: _404  and  _407
REMARK  168  A    between atoms: _407  and  _408
REMARK  169  A    between atoms: _408  and  _409
REMARK  170  A    between atoms: _414  and  _416
REMARK  171  A    between atoms: _416  and  _417
REMARK  172  A    between atoms: _416  and  _419
REMARK  173  A    between atoms: _419  and  _420
REMARK  174  A    between atoms: _423  and  _425
REMARK  175  A    between atoms: _425  and  _426
REMARK  176  A    between atoms: _425  and  _428
REMARK  177  A    between atoms: _428  and  _429
REMARK  178  A    between atoms: _433  and  _434
REMARK  179  A    between atoms: _439  and  _441
REMARK  180  A    between atoms: _441  and  _442
REMARK  181  A    between atoms: _441  and  _444
REMARK  182  A    between atoms: _444  and  _445
REMARK  183  A    between atoms: _447  and  _449
REMARK  184  A    between atoms: _449  and  _450
REMARK  185  A    between atoms: _449  and  _452
REMARK  186  A    between atoms: _454  and  _456
REMARK  187  A    between atoms: _456  and  _457
REMARK  188  A    between atoms: _460  and  _462
REMARK  189  A    between atoms: _462  and  _463
REMARK  190  A    between atoms: _462  and  _465
REMARK  191  A    between atoms: _465  and  _466
REMARK  192  A    between atoms: _469  and  _471
REMARK  193  A    between atoms: _471  and  _472
REMARK  194  A    between atoms: _471  and  _474
REMARK  195  A    between atoms: _474  and  _475
REMARK  196  A    between atoms: _477  and  _479
REMARK  197  A    between atoms: _479  and  _480
REMARK  198  A    between atoms: _482  and  _484
REMARK  199  A    between atoms: _484  and  _485
REMARK  200  A    between atoms: _484  and  _487
REMARK  201  A    between atoms: _487  and  _488
REMARK  202  A    between atoms: _491  and  _493
REMARK  203  A    between atoms: _493  and  _494
REMARK  204  A    between atoms: _493  and  _496
REMARK  205  A    between atoms: _496  and  _497
REMARK  206  A    between atoms: _500  and  _502
REMARK  207  A    between atoms: _502  and  _503
REMARK  208  A    between atoms: _502  and  _505
REMARK  209  A    between atoms: _505  and  _506
REMARK                            x       y       z     vdW  Elec       q    Type
REMARK                         _______ _______ _______ _____ _____    ______ ____
ROOT
ATOM      1  CG  TRP A   1       3.606   2.953  42.638  0.00  0.00    -0.002 A 
ATOM      2  CD1 TRP A   1       4.083   3.972  43.415  0.00  0.00    +0.068 A 
ATOM      3  NE1 TRP A   1       3.054   4.537  44.135  0.00  0.00    -0.352 N 
ATOM      4  HE1 TRP A   1       3.147   5.335  44.795  0.00  0.00    +0.166 HD
ATOM      5  CE2 TRP A   1       1.890   3.880  43.842  0.00  0.00    +0.056 A 
ATOM      6  CZ2 TRP A   1       0.585   4.082  44.335  0.00  0.00    +0.017 A 
ATOM      7  CH2 TRP A   1      -0.403   3.257  43.859  0.00  0.00    +0.001 A 
ATOM      8  CZ3 TRP A   1      -0.129   2.248  42.924  0.00  0.00    +0.000 A 
ATOM      9  CE3 TRP A   1       1.173   2.039  42.443  0.00  0.00    +0.001 A 
ATOM     10  CD2 TRP A   1       2.199   2.870  42.905  0.00  0.00    +0.013 A 
ENDROOT
BRANCH   1  11
ATOM     11  CB  TRP A   1       4.385   2.069  41.721  0.00  0.00    +0.053 C 
BRANCH  11  12
ATOM     12  CA  TRP A   1       5.883   2.393  41.615  0.00  0.00    +0.137 C 
BRANCH  12  13
ATOM     13  N   TRP A   1       6.125   3.599  40.790  0.00  0.00    -0.239 NA
ATOM     14  H   TRP A   1       5.318   4.160  40.451  0.00  0.00    +0.142 HD
ENDBRANCH  12  13
BRANCH  12  15
ATOM     15  C   TRP A   1       6.627   1.152  41.122  0.00  0.00    +0.224 C 
ATOM     16  O   TRP A   1       7.168   0.376  41.927  0.00  0.00    -0.287 OA
ENDBRANCH  12  15
ENDBRANCH  11  12
ENDBRANCH   1  11
TORSDOF 4
REMARK  Name = ../refined-set-2016/4kax/4kax_pocket.pdb
REMARK  209 active torsions:
REMARK  status: ('A' for Active; 'I' for Inactive)
REMARK    1  A    between atoms: _1  and  _3
REMARK    2  A    between atoms: _3  and  _4
REMARK    3  A    between atoms: _3  and  _6
REMARK    4  A    between atoms: _6  and  _7
REMARK    5  A    between atoms: _7  and  _8
REMARK    6  A    between atoms: _10  and  _12
REMARK    7  A    between atoms: _12  and  _13
REMARK    8  A    between atoms: _12  and  _15
REMARK    9  A    between atoms: _15  and  _16
REMARK   10  A    between atoms: _19  and  _21
REMARK   11  A    between atoms: _21  and  _22
REMARK   12  A    between atoms: _24  and  _26
REMARK   13  A    between atoms: _26  and  _27
REMARK   14  A    between atoms: _26  and  _29
REMARK   15  A    between atoms: _29  and  _30
REMARK   16  A    between atoms: _33  and  _35
REMARK   17  A    between atoms: _35  and  _36
REMARK   18  A    between atoms: _35  and  _38
REMARK   19  A    between atoms: _38  and  _39
REMARK   20  A    between atoms: _42  and  _44
REMARK   21  A    between atoms: _44  and  _45
REMARK   22  A    between atoms: _48  and  _50
REMARK   23  A    between atoms: _50  and  _51
REMARK   24  A    between atoms: _54  and  _56
REMARK   25  A    between atoms: _56  and  _57
REMARK   26  A    between atoms: _59  and  _61
REMARK   27  A    between atoms: _61  and  _62
REMARK   28  A    between atoms: _61  and  _64
REMARK   29  A    between atoms: _64  and  _65
REMARK   30  A    between atoms: _65  and  _66
REMARK   31  A    between atoms: _66  and  _67
REMARK   32  A    between atoms: _67  and  _68
REMARK   33  A    between atoms: _72  and  _74
REMARK   34  A    between atoms: _74  and  _75
REMARK   35  A    between atoms: _74  and  _77
REMARK   36  A    between atoms: _77  and  _78
REMARK   37  A    between atoms: _81  and  _83
REMARK   38  A    between atoms: _83  and  _84
REMARK   39  A    between atoms: _83  and  _86
REMARK   40  A    between atoms: _86  and  _87
REMARK   41  A    between atoms: _90  and  _92
REMARK   42  A    between atoms: _92  and  _93
REMARK   43  A    between atoms: _92  and  _95
REMARK   44  A    between atoms: _95  and  _96
REMARK   45  A    between atoms: _99  and  _101
REMARK   46  A    between atoms: _101  and  _102
REMARK   47  A    between atoms: _101  and  _104
REMARK   48  A    between atoms: _104  and  _105
REMARK   49  A    between atoms: _108  and  _110
REMARK   50  A    between atoms: _110  and  _111
REMARK   51  A    between atoms: _110  and  _113
REMARK   52  A    between atoms: _113  and  _114
REMARK   53  A    between atoms: _119  and  _120
REMARK   54  A    between atoms: _122  and  _124
REMARK   55  A    between atoms: _124  and  _125
REMARK   56  A    between atoms: _124  and  _127
REMARK   57  A    between atoms: _127  and  _128
REMARK   58  A    between atoms: _128  and  _129
REMARK   59  A    between atoms: _129  and  _130
REMARK   60  A    between atoms: _130  and  _131
REMARK   61  A    between atoms: _135  and  _137
REMARK   62  A    between atoms: _137  and  _138
REMARK   63  A    between atoms: _137  and  _140
REMARK   64  A    between atoms: _140  and  _141
REMARK   65  A    between atoms: _143  and  _145
REMARK   66  A    between atoms: _145  and  _146
REMARK   67  A    between atoms: _145  and  _148
REMARK   68  A    between atoms: _151  and  _153
REMARK   69  A    between atoms: _153  and  _154
REMARK   70  A    between atoms: _153  and  _156
REMARK   71  A    between atoms: _156  and  _157
REMARK   72  A    between atoms: _160  and  _162
REMARK   73  A    between atoms: _162  and  _163
REMARK   74  A    between atoms: _162  and  _165
REMARK   75  A    between atoms: _165  and  _166
REMARK   76  A    between atoms: _169  and  _171
REMARK   77  A    between atoms: _171  and  _172
REMARK   78  A    between atoms: _171  and  _174
REMARK   79  A    between atoms: _174  and  _175
REMARK   80  A    between atoms: _179  and  _180
REMARK   81  A    between atoms: _185  and  _187
REMARK   82  A    between atoms: _187  and  _188
REMARK   83  A    between atoms: _187  and  _190
REMARK   84  A    between atoms: _190  and  _191
REMARK   85  A    between atoms: _194  and  _196
REMARK   86  A    between atoms: _196  and  _197
REMARK   87  A    between atoms: _196  and  _199
REMARK   88  A    between atoms: _202  and  _204
REMARK   89  A    between atoms: _204  and  _205
REMARK   90  A    between atoms: _207  and  _209
REMARK   91  A    between atoms: _209  and  _210
REMARK   92  A    between atoms: _209  and  _212
REMARK   93  A    between atoms: _212  and  _213
REMARK   94  A    between atoms: _219  and  _221
REMARK   95  A    between atoms: _221  and  _222
REMARK   96  A    between atoms: _221  and  _224
REMARK   97  A    between atoms: _224  and  _225
REMARK   98  A    between atoms: _230  and  _232
REMARK   99  A    between atoms: _232  and  _233
REMARK  100  A    between atoms: _232  and  _235
REMARK  101  A    between atoms: _235  and  _236
REMARK  102  A    between atoms: _239  and  _241
REMARK  103  A    between atoms: _241  and  _242
REMARK  104  A    between atoms: _241  and  _244
REMARK  105  A    between atoms: _247  and  _249
REMARK  106  A    between atoms: _249  and  _250
REMARK  107  A    between atoms: _252  and  _254
REMARK  108  A    between atoms: _254  and  _255
REMARK  109  A    between atoms: _257  and  _259
REMARK  110  A    between atoms: _259  and  _260
REMARK  111  A    between atoms: _259  and  _262
REMARK  112  A    between atoms: _262  and  _263
REMARK  113  A    between atoms: _266  and  _268
REMARK  114  A    between atoms: _268  and  _269
REMARK  115  A    between atoms: _268  and  _271
REMARK  116  A    between atoms: _271  and  _272
REMARK  117  A    between atoms: _275  and  _277
REMARK  118  A    between atoms: _277  and  _278
REMARK  119  A    between atoms: _277  and  _280
REMARK  120  A    between atoms: _280  and  _281
REMARK  121  A    between atoms: _284  and  _286
REMARK  122  A    between atoms: _286  and  _287
REMARK  123  A    between atoms: _286  and  _289
REMARK  124  A    between atoms: _289  and  _290
REMARK  125  A    between atoms: _290  and  _291
REMARK  126  A    between atoms: _291  and  _292
REMARK  127  A    between atoms: _301  and  _303
REMARK  128  A    between atoms: _303  and  _304
REMARK  129  A    between atoms: _303  and  _306
REMARK  130  A    between atoms: _306  and  _307
REMARK  131  A    between atoms: _317  and  _319
REMARK  132  A    between atoms: _319  and  _320
REMARK  133  A    between atoms: _319  and  _322
REMARK  134  A    between atoms: _325  and  _327
REMARK  135  A    between atoms: _327  and  _328
REMARK  136  A    between atoms: _327  and  _330
REMARK  137  A    between atoms: _333  and  _335
REMARK  138  A    between atoms: _335  and  _336
REMARK  139  A    between atoms: _335  and  _338
REMARK  140  A    between atoms: _338  and  _339
REMARK  141  A    between atoms: _342  and  _344
REMARK  142  A    between atoms: _344  and  _345
REMARK  143  A    between atoms: _344  and  _347
REMARK  144  A    between atoms: _349  and  _351
REMARK  145  A    between atoms: _351  and  _352
REMARK  146  A    between atoms: _355  and  _357
REMARK  147  A    between atoms: _357  and  _358
REMARK  148  A    between atoms: _357  and  _360
REMARK  149  A    between atoms: _360  and  _361
REMARK  150  A    between atoms: _361  and  _362
REMARK  151  A    between atoms: _362  and  _363
REMARK  152  A    between atoms: _372  and  _374
REMARK  153  A    between atoms: _374  and  _375
REMARK  154  A    between atoms: _378  and  _380
REMARK  155  A    between atoms: _380  and  _381
REMARK  156  A    between atoms: _380  and  _383
REMARK  157  A    between atoms: _383  and  _384
REMARK  158  A    between atoms: _389  and  _391
REMARK  159  A    between atoms: _391  and  _392
REMARK  160  A    between atoms: _391  and  _394
REMARK  161  A    between atoms: _394  and  _395
REMARK  162  A    between atoms: _395  and  _396
REMARK  163  A    between atoms: _396  and  _397
REMARK  164  A    between atoms: _397  and  _398
REMARK  165  A    between atoms: _402  and  _404
REMARK  166  A    between atoms: _404  and  _405
REMARK  167  A    between atoms: _404  and  _407
REMARK  168  A    between atoms: _407  and  _408
REMARK  169  A    between atoms: _408  and  _409
REMARK  170  A    between atoms: _414  and  _416
REMARK  171  A    between atoms: _416  and  _417
REMARK  172  A    between atoms: _416  and  _419
REMARK  173  A    between atoms: _419  and  _420
REMARK  174  A    between atoms: _423  and  _425
REMARK  175  A    between atoms: _425  and  _426
REMARK  176  A    between atoms: _425  and  _428
REMARK  177  A    between atoms: _428  and  _429
REMARK  178  A    between atoms: _433  and  _434
REMARK  179  A    between atoms: _439  and  _441
REMARK  180  A    between atoms: _441  and  _442
REMARK  181  A    between atoms: _441  and  _444
REMARK  182  A    between atoms: _444  and  _445
REMARK  183  A    between atoms: _447  and  _449
REMARK  184  A    between atoms: _449  and  _450
REMARK  185  A    between atoms: _449  and  _452
REMARK  186  A    between atoms: _454  and  _456
REMARK  187  A    between atoms: _456  and  _457
REMARK  188  A    between atoms: _460  and  _462
REMARK  189  A    between atoms: _462  and  _463
REMARK  190  A    between atoms: _462  and  _465
REMARK  191  A    between atoms: _465  and  _466
REMARK  192  A    between atoms: _469  and  _471
REMARK  193  A    between atoms: _471  and  _472
REMARK  194  A    between atoms: _471  and  _474
REMARK  195  A    between atoms: _474  and  _475
REMARK  196  A    between atoms: _477  and  _479
REMARK  197  A    between atoms: _479  and  _480
REMARK  198  A    between atoms: _482  and  _484
REMARK  199  A    between atoms: _484  and  _485
REMARK  200  A    between atoms: _484  and  _487
REMARK  201  A    between atoms: _487  and  _488
REMARK  202  A    between atoms: _491  and  _493
REMARK  203  A    between atoms: _493  and  _494
REMARK  204  A    between atoms: _493  and  _496
REMARK  205  A    between atoms: _496  and  _497
REMARK  206  A    between atoms: _500  and  _502
REMARK  207  A    between atoms: _502  and  _503
REMARK  208  A    between atoms: _502  and  _505
REMARK  209  A    between atoms: _505  and  _506
REMARK                            x       y       z     vdW  Elec       q    Type
REMARK                         _______ _______ _______ _____ _____    ______ ____
ROOT
ATOM      1  CA  ASP A   3      -9.568   4.031  52.045  0.00  0.00    +0.160 C 
ENDROOT
BRANCH   1   4
ATOM      2  C   VAL A   2      -8.320   1.992  51.561  0.00  0.00    +0.241 C 
ATOM      3  O   VAL A   2      -8.559   1.499  52.670  0.00  0.00    -0.273 OA
ATOM      4  N   ASP A   3      -8.708   3.213  51.202  0.00  0.00    -0.297 N 
ATOM      5  H   ASP A   3      -8.387   3.595  50.290  0.00  0.00    +0.150 HD
BRANCH   2   6
ATOM      6  CA  VAL A   2      -7.519   1.211  50.520  0.00  0.00    +0.148 C 
BRANCH   6   8
ATOM      7  C   VAL A   1      -5.132   0.633  50.675  0.00  0.00    +0.238 C 
ATOM      8  N   VAL A   2      -6.385   0.485  51.116  0.00  0.00    -0.297 N 
ATOM      9  H   VAL A   2      -6.565  -0.165  51.907  0.00  0.00    +0.150 HD
ATOM     10  O   VAL A   1      -4.821   1.371  49.736  0.00  0.00    -0.274 OA
BRANCH   7  11
ATOM     11  CA  VAL A   1      -4.062  -0.170  51.400  0.00  0.00    +0.145 C 
BRANCH  11  12
ATOM     12  CB  VAL A   1      -3.234   0.762  52.307  0.00  0.00    +0.025 C 
ATOM     13  CG2 VAL A   1      -4.116   1.414  53.378  0.00  0.00    +0.002 C 
ATOM     14  CG1 VAL A   1      -2.081  -0.010  52.960  0.00  0.00    +0.002 C 
ENDBRANCH  11  12
BRANCH  11  15
ATOM     15  N   VAL A   1      -3.224  -0.836  50.413  0.00  0.00    -0.238 NA
ATOM     16  H   VAL A   1      -2.495  -0.283  49.919  0.00  0.00    +0.142 HD
ENDBRANCH  11  15
ENDBRANCH   7  11
ENDBRANCH   6   8
BRANCH   6  17
ATOM     17  CB  VAL A   2      -8.485   0.284  49.731  0.00  0.00    +0.027 C 
ATOM     18  CG2 VAL A   2      -8.933  -0.929  50.566  0.00  0.00    +0.002 C 
ATOM     19  CG1 VAL A   2      -7.860  -0.166  48.432  0.00  0.00    +0.002 C 
ENDBRANCH   6  17
ENDBRANCH   2   6
ENDBRANCH   1   4
BRANCH   1  20
ATOM     20  C   ASP A   3     -11.004   3.553  51.810  0.00  0.00    +0.241 C 
ATOM     21  N   CYS A   4     -11.563   2.859  52.798  0.00  0.00    -0.296 N 
ATOM     22  H   CYS A   4     -11.058   2.759  53.702  0.00  0.00    +0.150 HD
ATOM     23  O   ASP A   3     -11.581   3.784  50.743  0.00  0.00    -0.273 OA
BRANCH  21  24
ATOM     24  CA  CYS A   4     -12.881   2.232  52.634  0.00  0.00    +0.160 C 
BRANCH  24  25
ATOM     25  C   CYS A   4     -14.051   3.211  52.630  0.00  0.00    +0.242 C 
ATOM     26  N   ALA A   5     -13.801   4.440  53.062  0.00  0.00    -0.298 N 
ATOM     27  H   ALA A   5     -12.859   4.662  53.441  0.00  0.00    +0.150 HD
ATOM     28  O   CYS A   4     -15.164   2.850  52.243  0.00  0.00    -0.273 OA
BRANCH  26  29
ATOM     29  CA  ALA A   5     -14.818   5.490  53.018  0.00  0.00    +0.137 C 
ATOM     30  CB  ALA A   5     -14.613   6.477  54.149  0.00  0.00    +0.030 C 
BRANCH  29  31
ATOM     31  C   ALA A   5     -14.837   6.216  51.678  0.00  0.00    +0.227 C 
ATOM     32  O   ALA A   5     -15.796   6.930  51.368  0.00  0.00    -0.286 OA
ENDBRANCH  29  31
ENDBRANCH  26  29
ENDBRANCH  24  25
BRANCH  24  33
ATOM     33  CB  CYS A   4     -13.086   1.137  53.677  0.00  0.00    +0.098 C 
ATOM     34  SG  CYS A   4     -12.108  -0.305  53.311  0.00  0.00    -0.080 S 
ENDBRANCH  24  33
ENDBRANCH  21  24
ENDBRANCH   1  20
BRANCH   1  35
ATOM     35  CB  ASP A   3      -9.405   5.528  51.715  0.00  0.00    +0.143 C 
BRANCH  35  36
ATOM     36  CG  ASP A   3     -10.272   6.429  52.587  0.00  0.00    +0.367 C 
ATOM     37  OD2 ASP A   3     -11.211   5.929  53.243  0.00  0.00    -0.246 OA
ATOM     38  OD1 ASP A   3     -10.011   7.650  52.631  0.00  0.00    -0.246 OA
ENDBRANCH  35  36
ENDBRANCH   1  35
TORSDOF 15
REMARK  Name = ../refined-set-2016/4kax/4kax_pocket.pdb
REMARK  209 active torsions:
REMARK  status: ('A' for Active; 'I' for Inactive)
REMARK    1  A    between atoms: _1  and  _3
REMARK    2  A    between atoms: _3  and  _4
REMARK    3  A    between atoms: _3  and  _6
REMARK    4  A    between atoms: _6  and  _7
REMARK    5  A    between atoms: _7  and  _8
REMARK    6  A    between atoms: _10  and  _12
REMARK    7  A    between atoms: _12  and  _13
REMARK    8  A    between atoms: _12  and  _15
REMARK    9  A    between atoms: _15  and  _16
REMARK   10  A    between atoms: _19  and  _21
REMARK   11  A    between atoms: _21  and  _22
REMARK   12  A    between atoms: _24  and  _26
REMARK   13  A    between atoms: _26  and  _27
REMARK   14  A    between atoms: _26  and  _29
REMARK   15  A    between atoms: _29  and  _30
REMARK   16  A    between atoms: _33  and  _35
REMARK   17  A    between atoms: _35  and  _36
REMARK   18  A    between atoms: _35  and  _38
REMARK   19  A    between atoms: _38  and  _39
REMARK   20  A    between atoms: _42  and  _44
REMARK   21  A    between atoms: _44  and  _45
REMARK   22  A    between atoms: _48  and  _50
REMARK   23  A    between atoms: _50  and  _51
REMARK   24  A    between atoms: _54  and  _56
REMARK   25  A    between atoms: _56  and  _57
REMARK   26  A    between atoms: _59  and  _61
REMARK   27  A    between atoms: _61  and  _62
REMARK   28  A    between atoms: _61  and  _64
REMARK   29  A    between atoms: _64  and  _65
REMARK   30  A    between atoms: _65  and  _66
REMARK   31  A    between atoms: _66  and  _67
REMARK   32  A    between atoms: _67  and  _68
REMARK   33  A    between atoms: _72  and  _74
REMARK   34  A    between atoms: _74  and  _75
REMARK   35  A    between atoms: _74  and  _77
REMARK   36  A    between atoms: _77  and  _78
REMARK   37  A    between atoms: _81  and  _83
REMARK   38  A    between atoms: _83  and  _84
REMARK   39  A    between atoms: _83  and  _86
REMARK   40  A    between atoms: _86  and  _87
REMARK   41  A    between atoms: _90  and  _92
REMARK   42  A    between atoms: _92  and  _93
REMARK   43  A    between atoms: _92  and  _95
REMARK   44  A    between atoms: _95  and  _96
REMARK   45  A    between atoms: _99  and  _101
REMARK   46  A    between atoms: _101  and  _102
REMARK   47  A    between atoms: _101  and  _104
REMARK   48  A    between atoms: _104  and  _105
REMARK   49  A    between atoms: _108  and  _110
REMARK   50  A    between atoms: _110  and  _111
REMARK   51  A    between atoms: _110  and  _113
REMARK   52  A    between atoms: _113  and  _114
REMARK   53  A    between atoms: _119  and  _120
REMARK   54  A    between atoms: _122  and  _124
REMARK   55  A    between atoms: _124  and  _125
REMARK   56  A    between atoms: _124  and  _127
REMARK   57  A    between atoms: _127  and  _128
REMARK   58  A    between atoms: _128  and  _129
REMARK   59  A    between atoms: _129  and  _130
REMARK   60  A    between atoms: _130  and  _131
REMARK   61  A    between atoms: _135  and  _137
REMARK   62  A    between atoms: _137  and  _138
REMARK   63  A    between atoms: _137  and  _140
REMARK   64  A    between atoms: _140  and  _141
REMARK   65  A    between atoms: _143  and  _145
REMARK   66  A    between atoms: _145  and  _146
REMARK   67  A    between atoms: _145  and  _148
REMARK   68  A    between atoms: _151  and  _153
REMARK   69  A    between atoms: _153  and  _154
REMARK   70  A    between atoms: _153  and  _156
REMARK   71  A    between atoms: _156  and  _157
REMARK   72  A    between atoms: _160  and  _162
REMARK   73  A    between atoms: _162  and  _163
REMARK   74  A    between atoms: _162  and  _165
REMARK   75  A    between atoms: _165  and  _166
REMARK   76  A    between atoms: _169  and  _171
REMARK   77  A    between atoms: _171  and  _172
REMARK   78  A    between atoms: _171  and  _174
REMARK   79  A    between atoms: _174  and  _175
REMARK   80  A    between atoms: _179  and  _180
REMARK   81  A    between atoms: _185  and  _187
REMARK   82  A    between atoms: _187  and  _188
REMARK   83  A    between atoms: _187  and  _190
REMARK   84  A    between atoms: _190  and  _191
REMARK   85  A    between atoms: _194  and  _196
REMARK   86  A    between atoms: _196  and  _197
REMARK   87  A    between atoms: _196  and  _199
REMARK   88  A    between atoms: _202  and  _204
REMARK   89  A    between atoms: _204  and  _205
REMARK   90  A    between atoms: _207  and  _209
REMARK   91  A    between atoms: _209  and  _210
REMARK   92  A    between atoms: _209  and  _212
REMARK   93  A    between atoms: _212  and  _213
REMARK   94  A    between atoms: _219  and  _221
REMARK   95  A    between atoms: _221  and  _222
REMARK   96  A    between atoms: _221  and  _224
REMARK   97  A    between atoms: _224  and  _225
REMARK   98  A    between atoms: _230  and  _232
REMARK   99  A    between atoms: _232  and  _233
REMARK  100  A    between atoms: _232  and  _235
REMARK  101  A    between atoms: _235  and  _236
REMARK  102  A    between atoms: _239  and  _241
REMARK  103  A    between atoms: _241  and  _242
REMARK  104  A    between atoms: _241  and  _244
REMARK  105  A    between atoms: _247  and  _249
REMARK  106  A    between atoms: _249  and  _250
REMARK  107  A    between atoms: _252  and  _254
REMARK  108  A    between atoms: _254  and  _255
REMARK  109  A    between atoms: _257  and  _259
REMARK  110  A    between atoms: _259  and  _260
REMARK  111  A    between atoms: _259  and  _262
REMARK  112  A    between atoms: _262  and  _263
REMARK  113  A    between atoms: _266  and  _268
REMARK  114  A    between atoms: _268  and  _269
REMARK  115  A    between atoms: _268  and  _271
REMARK  116  A    between atoms: _271  and  _272
REMARK  117  A    between atoms: _275  and  _277
REMARK  118  A    between atoms: _277  and  _278
REMARK  119  A    between atoms: _277  and  _280
REMARK  120  A    between atoms: _280  and  _281
REMARK  121  A    between atoms: _284  and  _286
REMARK  122  A    between atoms: _286  and  _287
REMARK  123  A    between atoms: _286  and  _289
REMARK  124  A    between atoms: _289  and  _290
REMARK  125  A    between atoms: _290  and  _291
REMARK  126  A    between atoms: _291  and  _292
REMARK  127  A    between atoms: _301  and  _303
REMARK  128  A    between atoms: _303  and  _304
REMARK  129  A    between atoms: _303  and  _306
REMARK  130  A    between atoms: _306  and  _307
REMARK  131  A    between atoms: _317  and  _319
REMARK  132  A    between atoms: _319  and  _320
REMARK  133  A    between atoms: _319  and  _322
REMARK  134  A    between atoms: _325  and  _327
REMARK  135  A    between atoms: _327  and  _328
REMARK  136  A    between atoms: _327  and  _330
REMARK  137  A    between atoms: _333  and  _335
REMARK  138  A    between atoms: _335  and  _336
REMARK  139  A    between atoms: _335  and  _338
REMARK  140  A    between atoms: _338  and  _339
REMARK  141  A    between atoms: _342  and  _344
REMARK  142  A    between atoms: _344  and  _345
REMARK  143  A    between atoms: _344  and  _347
REMARK  144  A    between atoms: _349  and  _351
REMARK  145  A    between atoms: _351  and  _352
REMARK  146  A    between atoms: _355  and  _357
REMARK  147  A    between atoms: _357  and  _358
REMARK  148  A    between atoms: _357  and  _360
REMARK  149  A    between atoms: _360  and  _361
REMARK  150  A    between atoms: _361  and  _362
REMARK  151  A    between atoms: _362  and  _363
REMARK  152  A    between atoms: _372  and  _374
REMARK  153  A    between atoms: _374  and  _375
REMARK  154  A    between atoms: _378  and  _380
REMARK  155  A    between atoms: _380  and  _381
REMARK  156  A    between atoms: _380  and  _383
REMARK  157  A    between atoms: _383  and  _384
REMARK  158  A    between atoms: _389  and  _391
REMARK  159  A    between atoms: _391  and  _392
REMARK  160  A    between atoms: _391  and  _394
REMARK  161  A    between atoms: _394  and  _395
REMARK  162  A    between atoms: _395  and  _396
REMARK  163  A    between atoms: _396  and  _397
REMARK  164  A    between atoms: _397  and  _398
REMARK  165  A    between atoms: _402  and  _404
REMARK  166  A    between atoms: _404  and  _405
REMARK  167  A    between atoms: _404  and  _407
REMARK  168  A    between atoms: _407  and  _408
REMARK  169  A    between atoms: _408  and  _409
REMARK  170  A    between atoms: _414  and  _416
REMARK  171  A    between atoms: _416  and  _417
REMARK  172  A    between atoms: _416  and  _419
REMARK  173  A    between atoms: _419  and  _420
REMARK  174  A    between atoms: _423  and  _425
REMARK  175  A    between atoms: _425  and  _426
REMARK  176  A    between atoms: _425  and  _428
REMARK  177  A    between atoms: _428  and  _429
REMARK  178  A    between atoms: _433  and  _434
REMARK  179  A    between atoms: _439  and  _441
REMARK  180  A    between atoms: _441  and  _442
REMARK  181  A    between atoms: _441  and  _444
REMARK  182  A    between atoms: _444  and  _445
REMARK  183  A    between atoms: _447  and  _449
REMARK  184  A    between atoms: _449  and  _450
REMARK  185  A    between atoms: _449  and  _452
REMARK  186  A    between atoms: _454  and  _456
REMARK  187  A    between atoms: _456  and  _457
REMARK  188  A    between atoms: _460  and  _462
REMARK  189  A    between atoms: _462  and  _463
REMARK  190  A    between atoms: _462  and  _465
REMARK  191  A    between atoms: _465  and  _466
REMARK  192  A    between atoms: _469  and  _471
REMARK  193  A    between atoms: _471  and  _472
REMARK  194  A    between atoms: _471  and  _474
REMARK  195  A    between atoms: _474  and  _475
REMARK  196  A    between atoms: _477  and  _479
REMARK  197  A    between atoms: _479  and  _480
REMARK  198  A    between atoms: _482  and  _484
REMARK  199  A    between atoms: _484  and  _485
REMARK  200  A    between atoms: _484  and  _487
REMARK  201  A    between atoms: _487  and  _488
REMARK  202  A    between atoms: _491  and  _493
REMARK  203  A    between atoms: _493  and  _494
REMARK  204  A    between atoms: _493  and  _496
REMARK  205  A    between atoms: _496  and  _497
REMARK  206  A    between atoms: _500  and  _502
REMARK  207  A    between atoms: _502  and  _503
REMARK  208  A    between atoms: _502  and  _505
REMARK  209  A    between atoms: _505  and  _506
REMARK                            x       y       z     vdW  Elec       q    Type
REMARK                         _______ _______ _______ _____ _____    ______ ____
ROOT
ATOM      1  NE  ARG A   1      -8.486   9.375  45.161  0.00  0.00    -0.265 N 
ATOM      2  CZ  ARG A   1      -7.384   9.580  45.871  0.00  0.00    +0.342 C 
ATOM      3  NH2 ARG A   1      -7.435   9.785  47.185  0.00  0.00    -0.292 N 
ATOM      4 HH21 ARG A   1      -6.558   9.944  47.721  0.00  0.00    +0.255 HD
ATOM      5 HH22 ARG A   1      -8.352   9.787  47.676  0.00  0.00    +0.255 HD
ATOM      6  NH1 ARG A   1      -6.221   9.555  45.251  0.00  0.00    -0.292 N 
ATOM      7 HH11 ARG A   1      -5.343   9.713  45.786  0.00  0.00    +0.255 HD
ATOM      8 HH12 ARG A   1      -6.181   9.377  44.227  0.00  0.00    +0.255 HD
ATOM      9  HE  ARG A   1      -8.374   9.199  44.142  0.00  0.00    +0.259 HD
ENDROOT
BRANCH   1  10
ATOM     10  CD  ARG A   1      -9.832   9.377  45.694  0.00  0.00    +0.174 C 
BRANCH  10  11
ATOM     11  CG  ARG A   1     -10.809   8.741  44.715  0.00  0.00    +0.045 C 
BRANCH  11  12
ATOM     12  CB  ARG A   1     -10.755   7.234  44.842  0.00  0.00    +0.029 C 
BRANCH  12  13
ATOM     13  CA  ARG A   1     -11.888   6.486  44.137  0.00  0.00    +0.133 C 
BRANCH  13  14
ATOM     14  N   ARG A   1     -13.185   6.899  44.673  0.00  0.00    -0.239 NA
ATOM     15  H   ARG A   1     -13.422   6.678  45.661  0.00  0.00    +0.142 HD
ENDBRANCH  13  14
BRANCH  13  16
ATOM     16  C   ARG A   1     -11.623   4.987  44.217  0.00  0.00    +0.224 C 
ATOM     17  O   ARG A   1     -10.504   4.546  43.958  0.00  0.00    -0.287 OA
ENDBRANCH  13  16
ENDBRANCH  12  13
ENDBRANCH  11  12
ENDBRANCH  10  11
ENDBRANCH   1  10
TORSDOF 6
REMARK  Name = ../refined-set-2016/4kax/4kax_pocket.pdb
REMARK  209 active torsions:
REMARK  status: ('A' for Active; 'I' for Inactive)
REMARK    1  A    between atoms: _1  and  _3
REMARK    2  A    between atoms: _3  and  _4
REMARK    3  A    between atoms: _3  and  _6
REMARK    4  A    between atoms: _6  and  _7
REMARK    5  A    between atoms: _7  and  _8
REMARK    6  A    between atoms: _10  and  _12
REMARK    7  A    between atoms: _12  and  _13
REMARK    8  A    between atoms: _12  and  _15
REMARK    9  A    between atoms: _15  and  _16
REMARK   10  A    between atoms: _19  and  _21
REMARK   11  A    between atoms: _21  and  _22
REMARK   12  A    between atoms: _24  and  _26
REMARK   13  A    between atoms: _26  and  _27
REMARK   14  A    between atoms: _26  and  _29
REMARK   15  A    between atoms: _29  and  _30
REMARK   16  A    between atoms: _33  and  _35
REMARK   17  A    between atoms: _35  and  _36
REMARK   18  A    between atoms: _35  and  _38
REMARK   19  A    between atoms: _38  and  _39
REMARK   20  A    between atoms: _42  and  _44
REMARK   21  A    between atoms: _44  and  _45
REMARK   22  A    between atoms: _48  and  _50
REMARK   23  A    between atoms: _50  and  _51
REMARK   24  A    between atoms: _54  and  _56
REMARK   25  A    between atoms: _56  and  _57
REMARK   26  A    between atoms: _59  and  _61
REMARK   27  A    between atoms: _61  and  _62
REMARK   28  A    between atoms: _61  and  _64
REMARK   29  A    between atoms: _64  and  _65
REMARK   30  A    between atoms: _65  and  _66
REMARK   31  A    between atoms: _66  and  _67
REMARK   32  A    between atoms: _67  and  _68
REMARK   33  A    between atoms: _72  and  _74
REMARK   34  A    between atoms: _74  and  _75
REMARK   35  A    between atoms: _74  and  _77
REMARK   36  A    between atoms: _77  and  _78
REMARK   37  A    between atoms: _81  and  _83
REMARK   38  A    between atoms: _83  and  _84
REMARK   39  A    between atoms: _83  and  _86
REMARK   40  A    between atoms: _86  and  _87
REMARK   41  A    between atoms: _90  and  _92
REMARK   42  A    between atoms: _92  and  _93
REMARK   43  A    between atoms: _92  and  _95
REMARK   44  A    between atoms: _95  and  _96
REMARK   45  A    between atoms: _99  and  _101
REMARK   46  A    between atoms: _101  and  _102
REMARK   47  A    between atoms: _101  and  _104
REMARK   48  A    between atoms: _104  and  _105
REMARK   49  A    between atoms: _108  and  _110
REMARK   50  A    between atoms: _110  and  _111
REMARK   51  A    between atoms: _110  and  _113
REMARK   52  A    between atoms: _113  and  _114
REMARK   53  A    between atoms: _119  and  _120
REMARK   54  A    between atoms: _122  and  _124
REMARK   55  A    between atoms: _124  and  _125
REMARK   56  A    between atoms: _124  and  _127
REMARK   57  A    between atoms: _127  and  _128
REMARK   58  A    between atoms: _128  and  _129
REMARK   59  A    between atoms: _129  and  _130
REMARK   60  A    between atoms: _130  and  _131
REMARK   61  A    between atoms: _135  and  _137
REMARK   62  A    between atoms: _137  and  _138
REMARK   63  A    between atoms: _137  and  _140
REMARK   64  A    between atoms: _140  and  _141
REMARK   65  A    between atoms: _143  and  _145
REMARK   66  A    between atoms: _145  and  _146
REMARK   67  A    between atoms: _145  and  _148
REMARK   68  A    between atoms: _151  and  _153
REMARK   69  A    between atoms: _153  and  _154
REMARK   70  A    between atoms: _153  and  _156
REMARK   71  A    between atoms: _156  and  _157
REMARK   72  A    between atoms: _160  and  _162
REMARK   73  A    between atoms: _162  and  _163
REMARK   74  A    between atoms: _162  and  _165
REMARK   75  A    between atoms: _165  and  _166
REMARK   76  A    between atoms: _169  and  _171
REMARK   77  A    between atoms: _171  and  _172
REMARK   78  A    between atoms: _171  and  _174
REMARK   79  A    between atoms: _174  and  _175
REMARK   80  A    between atoms: _179  and  _180
REMARK   81  A    between atoms: _185  and  _187
REMARK   82  A    between atoms: _187  and  _188
REMARK   83  A    between atoms: _187  and  _190
REMARK   84  A    between atoms: _190  and  _191
REMARK   85  A    between atoms: _194  and  _196
REMARK   86  A    between atoms: _196  and  _197
REMARK   87  A    between atoms: _196  and  _199
REMARK   88  A    between atoms: _202  and  _204
REMARK   89  A    between atoms: _204  and  _205
REMARK   90  A    between atoms: _207  and  _209
REMARK   91  A    between atoms: _209  and  _210
REMARK   92  A    between atoms: _209  and  _212
REMARK   93  A    between atoms: _212  and  _213
REMARK   94  A    between atoms: _219  and  _221
REMARK   95  A    between atoms: _221  and  _222
REMARK   96  A    between atoms: _221  and  _224
REMARK   97  A    between atoms: _224  and  _225
REMARK   98  A    between atoms: _230  and  _232
REMARK   99  A    between atoms: _232  and  _233
REMARK  100  A    between atoms: _232  and  _235
REMARK  101  A    between atoms: _235  and  _236
REMARK  102  A    between atoms: _239  and  _241
REMARK  103  A    between atoms: _241  and  _242
REMARK  104  A    between atoms: _241  and  _244
REMARK  105  A    between atoms: _247  and  _249
REMARK  106  A    between atoms: _249  and  _250
REMARK  107  A    between atoms: _252  and  _254
REMARK  108  A    between atoms: _254  and  _255
REMARK  109  A    between atoms: _257  and  _259
REMARK  110  A    between atoms: _259  and  _260
REMARK  111  A    between atoms: _259  and  _262
REMARK  112  A    between atoms: _262  and  _263
REMARK  113  A    between atoms: _266  and  _268
REMARK  114  A    between atoms: _268  and  _269
REMARK  115  A    between atoms: _268  and  _271
REMARK  116  A    between atoms: _271  and  _272
REMARK  117  A    between atoms: _275  and  _277
REMARK  118  A    between atoms: _277  and  _278
REMARK  119  A    between atoms: _277  and  _280
REMARK  120  A    between atoms: _280  and  _281
REMARK  121  A    between atoms: _284  and  _286
REMARK  122  A    between atoms: _286  and  _287
REMARK  123  A    between atoms: _286  and  _289
REMARK  124  A    between atoms: _289  and  _290
REMARK  125  A    between atoms: _290  and  _291
REMARK  126  A    between atoms: _291  and  _292
REMARK  127  A    between atoms: _301  and  _303
REMARK  128  A    between atoms: _303  and  _304
REMARK  129  A    between atoms: _303  and  _306
REMARK  130  A    between atoms: _306  and  _307
REMARK  131  A    between atoms: _317  and  _319
REMARK  132  A    between atoms: _319  and  _320
REMARK  133  A    between atoms: _319  and  _322
REMARK  134  A    between atoms: _325  and  _327
REMARK  135  A    between atoms: _327  and  _328
REMARK  136  A    between atoms: _327  and  _330
REMARK  137  A    between atoms: _333  and  _335
REMARK  138  A    between atoms: _335  and  _336
REMARK  139  A    between atoms: _335  and  _338
REMARK  140  A    between atoms: _338  and  _339
REMARK  141  A    between atoms: _342  and  _344
REMARK  142  A    between atoms: _344  and  _345
REMARK  143  A    between atoms: _344  and  _347
REMARK  144  A    between atoms: _349  and  _351
REMARK  145  A    between atoms: _351  and  _352
REMARK  146  A    between atoms: _355  and  _357
REMARK  147  A    between atoms: _357  and  _358
REMARK  148  A    between atoms: _357  and  _360
REMARK  149  A    between atoms: _360  and  _361
REMARK  150  A    between atoms: _361  and  _362
REMARK  151  A    between atoms: _362  and  _363
REMARK  152  A    between atoms: _372  and  _374
REMARK  153  A    between atoms: _374  and  _375
REMARK  154  A    between atoms: _378  and  _380
REMARK  155  A    between atoms: _380  and  _381
REMARK  156  A    between atoms: _380  and  _383
REMARK  157  A    between atoms: _383  and  _384
REMARK  158  A    between atoms: _389  and  _391
REMARK  159  A    between atoms: _391  and  _392
REMARK  160  A    between atoms: _391  and  _394
REMARK  161  A    between atoms: _394  and  _395
REMARK  162  A    between atoms: _395  and  _396
REMARK  163  A    between atoms: _396  and  _397
REMARK  164  A    between atoms: _397  and  _398
REMARK  165  A    between atoms: _402  and  _404
REMARK  166  A    between atoms: _404  and  _405
REMARK  167  A    between atoms: _404  and  _407
REMARK  168  A    between atoms: _407  and  _408
REMARK  169  A    between atoms: _408  and  _409
REMARK  170  A    between atoms: _414  and  _416
REMARK  171  A    between atoms: _416  and  _417
REMARK  172  A    between atoms: _416  and  _419
REMARK  173  A    between atoms: _419  and  _420
REMARK  174  A    between atoms: _423  and  _425
REMARK  175  A    between atoms: _425  and  _426
REMARK  176  A    between atoms: _425  and  _428
REMARK  177  A    between atoms: _428  and  _429
REMARK  178  A    between atoms: _433  and  _434
REMARK  179  A    between atoms: _439  and  _441
REMARK  180  A    between atoms: _441  and  _442
REMARK  181  A    between atoms: _441  and  _444
REMARK  182  A    between atoms: _444  and  _445
REMARK  183  A    between atoms: _447  and  _449
REMARK  184  A    between atoms: _449  and  _450
REMARK  185  A    between atoms: _449  and  _452
REMARK  186  A    between atoms: _454  and  _456
REMARK  187  A    between atoms: _456  and  _457
REMARK  188  A    between atoms: _460  and  _462
REMARK  189  A    between atoms: _462  and  _463
REMARK  190  A    between atoms: _462  and  _465
REMARK  191  A    between atoms: _465  and  _466
REMARK  192  A    between atoms: _469  and  _471
REMARK  193  A    between atoms: _471  and  _472
REMARK  194  A    between atoms: _471  and  _474
REMARK  195  A    between atoms: _474  and  _475
REMARK  196  A    between atoms: _477  and  _479
REMARK  197  A    between atoms: _479  and  _480
REMARK  198  A    between atoms: _482  and  _484
REMARK  199  A    between atoms: _484  and  _485
REMARK  200  A    between atoms: _484  and  _487
REMARK  201  A    between atoms: _487  and  _488
REMARK  202  A    between atoms: _491  and  _493
REMARK  203  A    between atoms: _493  and  _494
REMARK  204  A    between atoms: _493  and  _496
REMARK  205  A    between atoms: _496  and  _497
REMARK  206  A    between atoms: _500  and  _502
REMARK  207  A    between atoms: _502  and  _503
REMARK  208  A    between atoms: _502  and  _505
REMARK  209  A    between atoms: _505  and  _506
REMARK                            x       y       z     vdW  Elec       q    Type
REMARK                         _______ _______ _______ _____ _____    ______ ____
ROOT
ATOM      1  CA  GLN A   4     -13.288   0.854  59.162  0.00  0.00    +0.149 C 
ENDROOT
BRANCH   1   3
ATOM      2  C   LYS A   3     -12.030   2.738  58.194  0.00  0.00    +0.241 C 
ATOM      3  N   GLN A   4     -12.042   1.530  58.764  0.00  0.00    -0.297 N 
ATOM      4  H   GLN A   4     -11.136   1.048  58.933  0.00  0.00    +0.150 HD
ATOM      5  O   LYS A   3     -13.056   3.378  57.943  0.00  0.00    -0.273 OA
BRANCH   2   6
ATOM      6  CA  LYS A   3     -10.645   3.326  57.881  0.00  0.00    +0.149 C 
BRANCH   6   8
ATOM      7  C   ASN A   2      -9.716   1.662  56.293  0.00  0.00    +0.241 C 
ATOM      8  N   LYS A   3      -9.665   2.314  57.452  0.00  0.00    -0.297 N 
ATOM      9  H   LYS A   3      -8.880   2.094  58.098  0.00  0.00    +0.150 HD
ATOM     10  O   ASN A   2     -10.591   1.842  55.451  0.00  0.00    -0.273 OA
BRANCH   7  11
ATOM     11  CA  ASN A   2      -8.597   0.651  56.049  0.00  0.00    +0.158 C 
BRANCH  11  14
ATOM     12  C   ALA A   1      -9.510  -1.455  55.179  0.00  0.00    +0.238 C 
ATOM     13  O   ALA A   1     -10.142  -1.729  56.208  0.00  0.00    -0.274 OA
ATOM     14  N   ASN A   2      -8.872  -0.302  54.983  0.00  0.00    -0.297 N 
ATOM     15  H   ASN A   2      -8.554  -0.071  54.020  0.00  0.00    +0.150 HD
BRANCH  12  16
ATOM     16  CA  ALA A   1      -9.410  -2.443  54.030  0.00  0.00    +0.145 C 
ATOM     17  CB  ALA A   1     -10.612  -3.390  53.988  0.00  0.00    +0.028 C 
BRANCH  16  18
ATOM     18  N   ALA A   1      -8.176  -3.184  54.226  0.00  0.00    -0.238 NA
ATOM     19  H   ALA A   1      -8.210  -4.120  54.678  0.00  0.00    +0.142 HD
ENDBRANCH  16  18
ENDBRANCH  12  16
ENDBRANCH  11  14
BRANCH  11  20
ATOM     20  CB  ASN A   2      -7.262   1.371  55.769  0.00  0.00    +0.114 C 
BRANCH  20  21
ATOM     21  CG  ASN A   2      -6.684   2.033  57.003  0.00  0.00    +0.222 C 
ATOM     22  OD1 ASN A   2      -6.676   1.445  58.087  0.00  0.00    -0.275 OA
ATOM     23  ND2 ASN A   2      -6.207   3.271  56.852  0.00  0.00    -0.329 N 
ATOM     24 HD21 ASN A   2      -5.808   3.778  57.668  0.00  0.00    +0.145 HD
ATOM     25 HD22 ASN A   2      -6.234   3.728  55.918  0.00  0.00    +0.145 HD
ENDBRANCH  20  21
ENDBRANCH  11  20
ENDBRANCH   7  11
ENDBRANCH   6   8
BRANCH   6  26
ATOM     26  CB  LYS A   3     -10.741   4.514  56.898  0.00  0.00    +0.029 C 
BRANCH  26  27
ATOM     27  CG  LYS A   3      -9.385   5.030  56.411  0.00  0.00    +0.000 C 
BRANCH  27  28
ATOM     28  CD  LYS A   3      -9.433   6.486  55.985  0.00  0.00    -0.024 C 
BRANCH  28  29
ATOM     29  CE  LYS A   3      -8.086   6.918  55.383  0.00  0.00    -0.086 C 
BRANCH  29  30
ATOM     30  NZ  LYS A   3      -8.150   8.301  54.795  0.00  0.00    +0.380 N 
ATOM     31  HZ1 LYS A   3      -8.407   8.981  55.539  0.00  0.00    -0.089 HD
ATOM     32  HZ2 LYS A   3      -7.221   8.552  54.400  0.00  0.00    -0.089 HD
ATOM     33  HZ3 LYS A   3      -8.866   8.323  54.041  0.00  0.00    -0.089 HD
ENDBRANCH  29  30
ENDBRANCH  28  29
ENDBRANCH  27  28
ENDBRANCH  26  27
ENDBRANCH   6  26
ENDBRANCH   2   6
ENDBRANCH   1   3
BRANCH   1  34
ATOM     34  C   GLN A   4     -14.055   1.606  60.254  0.00  0.00    +0.241 C 
ATOM     35  N   ASP A   5     -13.371   2.530  60.920  0.00  0.00    -0.297 N 
ATOM     36  H   ASP A   5     -12.364   2.661  60.694  0.00  0.00    +0.150 HD
ATOM     37  O   GLN A   4     -15.247   1.348  60.484  0.00  0.00    -0.273 OA
BRANCH  35  38
ATOM     38  CA  ASP A   5     -13.969   3.370  61.955  0.00  0.00    +0.160 C 
BRANCH  38  39
ATOM     39  C   ASP A   5     -14.960   4.398  61.396  0.00  0.00    +0.241 C 
ATOM     40  O   ASP A   5     -15.842   4.874  62.119  0.00  0.00    -0.273 OA
ATOM     41  N   LEU A   6     -14.811   4.737  60.118  0.00  0.00    -0.297 N 
ATOM     42  H   LEU A   6     -14.082   4.260  59.550  0.00  0.00    +0.150 HD
BRANCH  41  43
ATOM     43  CA  LEU A   6     -15.645   5.763  59.490  0.00  0.00    +0.149 C 
BRANCH  43  44
ATOM     44  C   LEU A   6     -17.050   5.263  59.132  0.00  0.00    +0.244 C 
ATOM     45  N   PRO A   7     -18.064   6.141  59.282  0.00  0.00    -0.273 N 
ATOM     46  CD  PRO A   7     -17.962   7.538  59.747  0.00  0.00    +0.094 C 
ATOM     47  CG  PRO A   7     -19.175   8.175  59.150  0.00  0.00    +0.024 C 
ATOM     48  CB  PRO A   7     -20.213   7.097  59.173  0.00  0.00    +0.030 C 
ATOM     49  CA  PRO A   7     -19.443   5.785  58.952  0.00  0.00    +0.140 C 
ATOM     50  O   LEU A   6     -17.221   4.101  58.747  0.00  0.00    -0.273 OA
BRANCH  49  51
ATOM     51  C   PRO A   7     -19.578   5.337  57.502  0.00  0.00    +0.227 C 
ATOM     52  O   PRO A   7     -19.006   5.962  56.603  0.00  0.00    -0.286 OA
ENDBRANCH  49  51
ENDBRANCH  43  44
BRANCH  43  53
ATOM     53  CB  LEU A   6     -14.940   6.363  58.262  0.00  0.00    +0.029 C 
BRANCH  53  54
ATOM     54  CG  LEU A   6     -13.644   7.129  58.549  0.00  0.00    +0.002 C 
ATOM     55  CD2 LEU A   6     -13.851   8.223  59.596  0.00  0.00    +0.000 C 
ATOM     56  CD1 LEU A   6     -13.071   7.725  57.266  0.00  0.00    +0.000 C 
ENDBRANCH  53  54
ENDBRANCH  43  53
ENDBRANCH  41  43
ENDBRANCH  38  39
BRANCH  38  57
ATOM     57  CB  ASP A   5     -12.877   4.093  62.749  0.00  0.00    +0.143 C 
BRANCH  57  58
ATOM     58  CG  ASP A   5     -12.035   5.015  61.876  0.00  0.00    +0.367 C 
ATOM     59  OD2 ASP A   5     -12.006   6.236  62.145  0.00  0.00    -0.246 OA
ATOM     60  OD1 ASP A   5     -11.402   4.513  60.923  0.00  0.00    -0.246 OA
ENDBRANCH  57  58
ENDBRANCH  38  57
ENDBRANCH  35  38
ENDBRANCH   1  34
BRANCH   1  61
ATOM     61  CB  GLN A   4     -13.007  -0.588  59.610  0.00  0.00    +0.039 C 
BRANCH  61  62
ATOM     62  CG  GLN A   4     -12.524  -1.519  58.502  0.00  0.00    +0.087 C 
BRANCH  62  63
ATOM     63  CD  GLN A   4     -13.540  -1.724  57.395  0.00  0.00    +0.219 C 
ATOM     64  NE2 GLN A   4     -14.786  -1.971  57.774  0.00  0.00    -0.329 N 
ATOM     65 HE21 GLN A   4     -15.023  -2.015  58.786  0.00  0.00    +0.145 HD
ATOM     66 HE22 GLN A   4     -15.527  -2.121  57.060  0.00  0.00    +0.145 HD
ATOM     67  OE1 GLN A   4     -13.205  -1.661  56.206  0.00  0.00    -0.275 OA
ENDBRANCH  62  63
ENDBRANCH  61  62
ENDBRANCH   1  61
TORSDOF 27
REMARK  Name = ../refined-set-2016/4kax/4kax_pocket.pdb
REMARK  209 active torsions:
REMARK  status: ('A' for Active; 'I' for Inactive)
REMARK    1  A    between atoms: _1  and  _3
REMARK    2  A    between atoms: _3  and  _4
REMARK    3  A    between atoms: _3  and  _6
REMARK    4  A    between atoms: _6  and  _7
REMARK    5  A    between atoms: _7  and  _8
REMARK    6  A    between atoms: _10  and  _12
REMARK    7  A    between atoms: _12  and  _13
REMARK    8  A    between atoms: _12  and  _15
REMARK    9  A    between atoms: _15  and  _16
REMARK   10  A    between atoms: _19  and  _21
REMARK   11  A    between atoms: _21  and  _22
REMARK   12  A    between atoms: _24  and  _26
REMARK   13  A    between atoms: _26  and  _27
REMARK   14  A    between atoms: _26  and  _29
REMARK   15  A    between atoms: _29  and  _30
REMARK   16  A    between atoms: _33  and  _35
REMARK   17  A    between atoms: _35  and  _36
REMARK   18  A    between atoms: _35  and  _38
REMARK   19  A    between atoms: _38  and  _39
REMARK   20  A    between atoms: _42  and  _44
REMARK   21  A    between atoms: _44  and  _45
REMARK   22  A    between atoms: _48  and  _50
REMARK   23  A    between atoms: _50  and  _51
REMARK   24  A    between atoms: _54  and  _56
REMARK   25  A    between atoms: _56  and  _57
REMARK   26  A    between atoms: _59  and  _61
REMARK   27  A    between atoms: _61  and  _62
REMARK   28  A    between atoms: _61  and  _64
REMARK   29  A    between atoms: _64  and  _65
REMARK   30  A    between atoms: _65  and  _66
REMARK   31  A    between atoms: _66  and  _67
REMARK   32  A    between atoms: _67  and  _68
REMARK   33  A    between atoms: _72  and  _74
REMARK   34  A    between atoms: _74  and  _75
REMARK   35  A    between atoms: _74  and  _77
REMARK   36  A    between atoms: _77  and  _78
REMARK   37  A    between atoms: _81  and  _83
REMARK   38  A    between atoms: _83  and  _84
REMARK   39  A    between atoms: _83  and  _86
REMARK   40  A    between atoms: _86  and  _87
REMARK   41  A    between atoms: _90  and  _92
REMARK   42  A    between atoms: _92  and  _93
REMARK   43  A    between atoms: _92  and  _95
REMARK   44  A    between atoms: _95  and  _96
REMARK   45  A    between atoms: _99  and  _101
REMARK   46  A    between atoms: _101  and  _102
REMARK   47  A    between atoms: _101  and  _104
REMARK   48  A    between atoms: _104  and  _105
REMARK   49  A    between atoms: _108  and  _110
REMARK   50  A    between atoms: _110  and  _111
REMARK   51  A    between atoms: _110  and  _113
REMARK   52  A    between atoms: _113  and  _114
REMARK   53  A    between atoms: _119  and  _120
REMARK   54  A    between atoms: _122  and  _124
REMARK   55  A    between atoms: _124  and  _125
REMARK   56  A    between atoms: _124  and  _127
REMARK   57  A    between atoms: _127  and  _128
REMARK   58  A    between atoms: _128  and  _129
REMARK   59  A    between atoms: _129  and  _130
REMARK   60  A    between atoms: _130  and  _131
REMARK   61  A    between atoms: _135  and  _137
REMARK   62  A    between atoms: _137  and  _138
REMARK   63  A    between atoms: _137  and  _140
REMARK   64  A    between atoms: _140  and  _141
REMARK   65  A    between atoms: _143  and  _145
REMARK   66  A    between atoms: _145  and  _146
REMARK   67  A    between atoms: _145  and  _148
REMARK   68  A    between atoms: _151  and  _153
REMARK   69  A    between atoms: _153  and  _154
REMARK   70  A    between atoms: _153  and  _156
REMARK   71  A    between atoms: _156  and  _157
REMARK   72  A    between atoms: _160  and  _162
REMARK   73  A    between atoms: _162  and  _163
REMARK   74  A    between atoms: _162  and  _165
REMARK   75  A    between atoms: _165  and  _166
REMARK   76  A    between atoms: _169  and  _171
REMARK   77  A    between atoms: _171  and  _172
REMARK   78  A    between atoms: _171  and  _174
REMARK   79  A    between atoms: _174  and  _175
REMARK   80  A    between atoms: _179  and  _180
REMARK   81  A    between atoms: _185  and  _187
REMARK   82  A    between atoms: _187  and  _188
REMARK   83  A    between atoms: _187  and  _190
REMARK   84  A    between atoms: _190  and  _191
REMARK   85  A    between atoms: _194  and  _196
REMARK   86  A    between atoms: _196  and  _197
REMARK   87  A    between atoms: _196  and  _199
REMARK   88  A    between atoms: _202  and  _204
REMARK   89  A    between atoms: _204  and  _205
REMARK   90  A    between atoms: _207  and  _209
REMARK   91  A    between atoms: _209  and  _210
REMARK   92  A    between atoms: _209  and  _212
REMARK   93  A    between atoms: _212  and  _213
REMARK   94  A    between atoms: _219  and  _221
REMARK   95  A    between atoms: _221  and  _222
REMARK   96  A    between atoms: _221  and  _224
REMARK   97  A    between atoms: _224  and  _225
REMARK   98  A    between atoms: _230  and  _232
REMARK   99  A    between atoms: _232  and  _233
REMARK  100  A    between atoms: _232  and  _235
REMARK  101  A    between atoms: _235  and  _236
REMARK  102  A    between atoms: _239  and  _241
REMARK  103  A    between atoms: _241  and  _242
REMARK  104  A    between atoms: _241  and  _244
REMARK  105  A    between atoms: _247  and  _249
REMARK  106  A    between atoms: _249  and  _250
REMARK  107  A    between atoms: _252  and  _254
REMARK  108  A    between atoms: _254  and  _255
REMARK  109  A    between atoms: _257  and  _259
REMARK  110  A    between atoms: _259  and  _260
REMARK  111  A    between atoms: _259  and  _262
REMARK  112  A    between atoms: _262  and  _263
REMARK  113  A    between atoms: _266  and  _268
REMARK  114  A    between atoms: _268  and  _269
REMARK  115  A    between atoms: _268  and  _271
REMARK  116  A    between atoms: _271  and  _272
REMARK  117  A    between atoms: _275  and  _277
REMARK  118  A    between atoms: _277  and  _278
REMARK  119  A    between atoms: _277  and  _280
REMARK  120  A    between atoms: _280  and  _281
REMARK  121  A    between atoms: _284  and  _286
REMARK  122  A    between atoms: _286  and  _287
REMARK  123  A    between atoms: _286  and  _289
REMARK  124  A    between atoms: _289  and  _290
REMARK  125  A    between atoms: _290  and  _291
REMARK  126  A    between atoms: _291  and  _292
REMARK  127  A    between atoms: _301  and  _303
REMARK  128  A    between atoms: _303  and  _304
REMARK  129  A    between atoms: _303  and  _306
REMARK  130  A    between atoms: _306  and  _307
REMARK  131  A    between atoms: _317  and  _319
REMARK  132  A    between atoms: _319  and  _320
REMARK  133  A    between atoms: _319  and  _322
REMARK  134  A    between atoms: _325  and  _327
REMARK  135  A    between atoms: _327  and  _328
REMARK  136  A    between atoms: _327  and  _330
REMARK  137  A    between atoms: _333  and  _335
REMARK  138  A    between atoms: _335  and  _336
REMARK  139  A    between atoms: _335  and  _338
REMARK  140  A    between atoms: _338  and  _339
REMARK  141  A    between atoms: _342  and  _344
REMARK  142  A    between atoms: _344  and  _345
REMARK  143  A    between atoms: _344  and  _347
REMARK  144  A    between atoms: _349  and  _351
REMARK  145  A    between atoms: _351  and  _352
REMARK  146  A    between atoms: _355  and  _357
REMARK  147  A    between atoms: _357  and  _358
REMARK  148  A    between atoms: _357  and  _360
REMARK  149  A    between atoms: _360  and  _361
REMARK  150  A    between atoms: _361  and  _362
REMARK  151  A    between atoms: _362  and  _363
REMARK  152  A    between atoms: _372  and  _374
REMARK  153  A    between atoms: _374  and  _375
REMARK  154  A    between atoms: _378  and  _380
REMARK  155  A    between atoms: _380  and  _381
REMARK  156  A    between atoms: _380  and  _383
REMARK  157  A    between atoms: _383  and  _384
REMARK  158  A    between atoms: _389  and  _391
REMARK  159  A    between atoms: _391  and  _392
REMARK  160  A    between atoms: _391  and  _394
REMARK  161  A    between atoms: _394  and  _395
REMARK  162  A    between atoms: _395  and  _396
REMARK  163  A    between atoms: _396  and  _397
REMARK  164  A    between atoms: _397  and  _398
REMARK  165  A    between atoms: _402  and  _404
REMARK  166  A    between atoms: _404  and  _405
REMARK  167  A    between atoms: _404  and  _407
REMARK  168  A    between atoms: _407  and  _408
REMARK  169  A    between atoms: _408  and  _409
REMARK  170  A    between atoms: _414  and  _416
REMARK  171  A    between atoms: _416  and  _417
REMARK  172  A    between atoms: _416  and  _419
REMARK  173  A    between atoms: _419  and  _420
REMARK  174  A    between atoms: _423  and  _425
REMARK  175  A    between atoms: _425  and  _426
REMARK  176  A    between atoms: _425  and  _428
REMARK  177  A    between atoms: _428  and  _429
REMARK  178  A    between atoms: _433  and  _434
REMARK  179  A    between atoms: _439  and  _441
REMARK  180  A    between atoms: _441  and  _442
REMARK  181  A    between atoms: _441  and  _444
REMARK  182  A    between atoms: _444  and  _445
REMARK  183  A    between atoms: _447  and  _449
REMARK  184  A    between atoms: _449  and  _450
REMARK  185  A    between atoms: _449  and  _452
REMARK  186  A    between atoms: _454  and  _456
REMARK  187  A    between atoms: _456  and  _457
REMARK  188  A    between atoms: _460  and  _462
REMARK  189  A    between atoms: _462  and  _463
REMARK  190  A    between atoms: _462  and  _465
REMARK  191  A    between atoms: _465  and  _466
REMARK  192  A    between atoms: _469  and  _471
REMARK  193  A    between atoms: _471  and  _472
REMARK  194  A    between atoms: _471  and  _474
REMARK  195  A    between atoms: _474  and  _475
REMARK  196  A    between atoms: _477  and  _479
REMARK  197  A    between atoms: _479  and  _480
REMARK  198  A    between atoms: _482  and  _484
REMARK  199  A    between atoms: _484  and  _485
REMARK  200  A    between atoms: _484  and  _487
REMARK  201  A    between atoms: _487  and  _488
REMARK  202  A    between atoms: _491  and  _493
REMARK  203  A    between atoms: _493  and  _494
REMARK  204  A    between atoms: _493  and  _496
REMARK  205  A    between atoms: _496  and  _497
REMARK  206  A    between atoms: _500  and  _502
REMARK  207  A    between atoms: _502  and  _503
REMARK  208  A    between atoms: _502  and  _505
REMARK  209  A    between atoms: _505  and  _506
REMARK                            x       y       z     vdW  Elec       q    Type
REMARK                         _______ _______ _______ _____ _____    ______ ____
ROOT
ATOM      1  CA  THR A   4      -5.261   5.023  63.782  0.00  0.00    +0.176 C 
ENDROOT
BRANCH   1   4
ATOM      2  C   ALA A   3      -4.510   3.194  62.400  0.00  0.00    +0.241 C 
ATOM      3  O   ALA A   3      -3.470   3.095  63.053  0.00  0.00    -0.273 OA
ATOM      4  N   THR A   4      -5.464   4.066  62.705  0.00  0.00    -0.295 N 
ATOM      5  H   THR A   4      -6.358   4.065  62.173  0.00  0.00    +0.150 HD
BRANCH   2   6
ATOM      6  CA  ALA A   3      -4.749   2.308  61.186  0.00  0.00    +0.149 C 
ATOM      7  CB  ALA A   3      -4.113   2.932  59.942  0.00  0.00    +0.031 C 
BRANCH   6  10
ATOM      8  C   CYS A   2      -6.913   1.372  61.832  0.00  0.00    +0.242 C 
ATOM      9  O   CYS A   2      -6.477   0.989  62.923  0.00  0.00    -0.273 OA
ATOM     10  N   ALA A   3      -6.173   2.038  60.947  0.00  0.00    -0.297 N 
ATOM     11  H   ALA A   3      -6.613   2.374  60.067  0.00  0.00    +0.150 HD
BRANCH   8  12
ATOM     12  CA  CYS A   2      -8.337   1.056  61.408  0.00  0.00    +0.160 C 
BRANCH  12  14
ATOM     13  C   SER A   1      -8.792  -0.817  59.906  0.00  0.00    +0.241 C 
ATOM     14  N   CYS A   2      -8.319  -0.339  61.052  0.00  0.00    -0.296 N 
ATOM     15  H   CYS A   2      -7.912  -1.012  61.732  0.00  0.00    +0.150 HD
ATOM     16  O   SER A   1      -9.547  -0.190  59.154  0.00  0.00    -0.274 OA
BRANCH  13  17
ATOM     17  CA  SER A   1      -8.344  -2.237  59.579  0.00  0.00    +0.174 C 
BRANCH  17  18
ATOM     18  N   SER A   1      -9.225  -2.951  58.675  0.00  0.00    -0.236 NA
ATOM     19  H   SER A   1      -9.731  -2.431  57.930  0.00  0.00    +0.142 HD
ENDBRANCH  17  18
BRANCH  17  20
ATOM     20  CB  SER A   1      -6.904  -2.237  59.031  0.00  0.00    +0.163 C 
BRANCH  20  21
ATOM     21  OG  SER A   1      -6.765  -1.357  57.921  0.00  0.00    -0.380 OA
ATOM     22  H   SER A   1      -6.993  -0.435  58.201  0.00  0.00    +0.211 HD
ENDBRANCH  20  21
ENDBRANCH  17  20
ENDBRANCH  13  17
ENDBRANCH  12  14
BRANCH  12  23
ATOM     23  CB  CYS A   2      -9.325   1.323  62.545  0.00  0.00    +0.098 C 
ATOM     24  SG  CYS A   2      -9.214   2.977  63.224  0.00  0.00    -0.080 S 
ENDBRANCH  12  23
ENDBRANCH   8  12
ENDBRANCH   6  10
ENDBRANCH   2   6
ENDBRANCH   1   4
BRANCH   1  25
ATOM     25  C   THR A   4      -5.430   4.405  65.175  0.00  0.00    +0.243 C 
ATOM     26  O   THR A   4      -4.818   4.867  66.135  0.00  0.00    -0.273 OA
ATOM     27  N   SER A   5      -6.237   3.348  65.266  0.00  0.00    -0.295 N 
ATOM     28  H   SER A   5      -6.765   3.042  64.424  0.00  0.00    +0.150 HD
BRANCH  27  29
ATOM     29  CA  SER A   5      -6.403   2.602  66.521  0.00  0.00    +0.178 C 
BRANCH  29  30
ATOM     30  C   SER A   5      -5.517   1.360  66.544  0.00  0.00    +0.243 C 
ATOM     31  O   SER A   5      -5.173   0.861  67.612  0.00  0.00    -0.273 OA
ATOM     32  N   GLY A   6      -5.146   0.875  65.359  0.00  0.00    -0.295 N 
ATOM     33  H   GLY A   6      -5.477   1.353  64.497  0.00  0.00    +0.150 HD
BRANCH  32  34
ATOM     34  CA  GLY A   6      -4.294  -0.300  65.225  0.00  0.00    +0.176 C 
BRANCH  34  35
ATOM     35  C   GLY A   6      -5.071  -1.561  64.925  0.00  0.00    +0.243 C 
ATOM     36  N   ASP A   7      -6.398  -1.466  64.994  0.00  0.00    -0.297 N 
ATOM     37  H   ASP A   7      -6.824  -0.546  65.227  0.00  0.00    +0.150 HD
ATOM     38  O   GLY A   6      -4.487  -2.599  64.632  0.00  0.00    -0.273 OA
BRANCH  36  39
ATOM     39  CA  ASP A   7      -7.275  -2.606  64.754  0.00  0.00    +0.148 C 
BRANCH  39  40
ATOM     40  C   ASP A   7      -6.961  -3.264  63.413  0.00  0.00    +0.227 C 
ATOM     41  O   ASP A   7      -6.940  -2.597  62.374  0.00  0.00    -0.286 OA
ENDBRANCH  39  40
BRANCH  39  42
ATOM     42  CB  ASP A   7      -8.745  -2.158  64.808  0.00  0.00    +0.142 C 
BRANCH  42  43
ATOM     43  CG  ASP A   7      -9.722  -3.327  64.877  0.00  0.00    +0.367 C 
ATOM     44  OD2 ASP A   7     -10.914  -3.091  65.186  0.00  0.00    -0.246 OA
ATOM     45  OD1 ASP A   7      -9.319  -4.480  64.627  0.00  0.00    -0.246 OA
ENDBRANCH  42  43
ENDBRANCH  39  42
ENDBRANCH  36  39
ENDBRANCH  34  35
ENDBRANCH  32  34
ENDBRANCH  29  30
BRANCH  29  46
ATOM     46  CB  SER A   5      -7.867   2.202  66.730  0.00  0.00    +0.166 C 
BRANCH  46  47
ATOM     47  OG  SER A   5      -8.236   1.155  65.852  0.00  0.00    -0.380 OA
ATOM     48  H   SER A   5      -9.184   0.915  66.006  0.00  0.00    +0.211 HD
ENDBRANCH  46  47
ENDBRANCH  29  46
ENDBRANCH  27  29
ENDBRANCH   1  25
BRANCH   1  49
ATOM     49  CB  THR A   4      -6.125   6.287  63.614  0.00  0.00    +0.137 C 
ATOM     50  CG2 THR A   4      -5.628   7.127  62.417  0.00  0.00    +0.034 C 
BRANCH  49  51
ATOM     51  OG1 THR A   4      -7.482   5.908  63.380  0.00  0.00    -0.382 OA
ATOM     52  HG1 THR A   4      -8.037   6.721  63.272  0.00  0.00    +0.210 HD
ENDBRANCH  49  51
ENDBRANCH   1  49
TORSDOF 23
REMARK  Name = ../refined-set-2016/4kax/4kax_pocket.pdb
REMARK  209 active torsions:
REMARK  status: ('A' for Active; 'I' for Inactive)
REMARK    1  A    between atoms: _1  and  _3
REMARK    2  A    between atoms: _3  and  _4
REMARK    3  A    between atoms: _3  and  _6
REMARK    4  A    between atoms: _6  and  _7
REMARK    5  A    between atoms: _7  and  _8
REMARK    6  A    between atoms: _10  and  _12
REMARK    7  A    between atoms: _12  and  _13
REMARK    8  A    between atoms: _12  and  _15
REMARK    9  A    between atoms: _15  and  _16
REMARK   10  A    between atoms: _19  and  _21
REMARK   11  A    between atoms: _21  and  _22
REMARK   12  A    between atoms: _24  and  _26
REMARK   13  A    between atoms: _26  and  _27
REMARK   14  A    between atoms: _26  and  _29
REMARK   15  A    between atoms: _29  and  _30
REMARK   16  A    between atoms: _33  and  _35
REMARK   17  A    between atoms: _35  and  _36
REMARK   18  A    between atoms: _35  and  _38
REMARK   19  A    between atoms: _38  and  _39
REMARK   20  A    between atoms: _42  and  _44
REMARK   21  A    between atoms: _44  and  _45
REMARK   22  A    between atoms: _48  and  _50
REMARK   23  A    between atoms: _50  and  _51
REMARK   24  A    between atoms: _54  and  _56
REMARK   25  A    between atoms: _56  and  _57
REMARK   26  A    between atoms: _59  and  _61
REMARK   27  A    between atoms: _61  and  _62
REMARK   28  A    between atoms: _61  and  _64
REMARK   29  A    between atoms: _64  and  _65
REMARK   30  A    between atoms: _65  and  _66
REMARK   31  A    between atoms: _66  and  _67
REMARK   32  A    between atoms: _67  and  _68
REMARK   33  A    between atoms: _72  and  _74
REMARK   34  A    between atoms: _74  and  _75
REMARK   35  A    between atoms: _74  and  _77
REMARK   36  A    between atoms: _77  and  _78
REMARK   37  A    between atoms: _81  and  _83
REMARK   38  A    between atoms: _83  and  _84
REMARK   39  A    between atoms: _83  and  _86
REMARK   40  A    between atoms: _86  and  _87
REMARK   41  A    between atoms: _90  and  _92
REMARK   42  A    between atoms: _92  and  _93
REMARK   43  A    between atoms: _92  and  _95
REMARK   44  A    between atoms: _95  and  _96
REMARK   45  A    between atoms: _99  and  _101
REMARK   46  A    between atoms: _101  and  _102
REMARK   47  A    between atoms: _101  and  _104
REMARK   48  A    between atoms: _104  and  _105
REMARK   49  A    between atoms: _108  and  _110
REMARK   50  A    between atoms: _110  and  _111
REMARK   51  A    between atoms: _110  and  _113
REMARK   52  A    between atoms: _113  and  _114
REMARK   53  A    between atoms: _119  and  _120
REMARK   54  A    between atoms: _122  and  _124
REMARK   55  A    between atoms: _124  and  _125
REMARK   56  A    between atoms: _124  and  _127
REMARK   57  A    between atoms: _127  and  _128
REMARK   58  A    between atoms: _128  and  _129
REMARK   59  A    between atoms: _129  and  _130
REMARK   60  A    between atoms: _130  and  _131
REMARK   61  A    between atoms: _135  and  _137
REMARK   62  A    between atoms: _137  and  _138
REMARK   63  A    between atoms: _137  and  _140
REMARK   64  A    between atoms: _140  and  _141
REMARK   65  A    between atoms: _143  and  _145
REMARK   66  A    between atoms: _145  and  _146
REMARK   67  A    between atoms: _145  and  _148
REMARK   68  A    between atoms: _151  and  _153
REMARK   69  A    between atoms: _153  and  _154
REMARK   70  A    between atoms: _153  and  _156
REMARK   71  A    between atoms: _156  and  _157
REMARK   72  A    between atoms: _160  and  _162
REMARK   73  A    between atoms: _162  and  _163
REMARK   74  A    between atoms: _162  and  _165
REMARK   75  A    between atoms: _165  and  _166
REMARK   76  A    between atoms: _169  and  _171
REMARK   77  A    between atoms: _171  and  _172
REMARK   78  A    between atoms: _171  and  _174
REMARK   79  A    between atoms: _174  and  _175
REMARK   80  A    between atoms: _179  and  _180
REMARK   81  A    between atoms: _185  and  _187
REMARK   82  A    between atoms: _187  and  _188
REMARK   83  A    between atoms: _187  and  _190
REMARK   84  A    between atoms: _190  and  _191
REMARK   85  A    between atoms: _194  and  _196
REMARK   86  A    between atoms: _196  and  _197
REMARK   87  A    between atoms: _196  and  _199
REMARK   88  A    between atoms: _202  and  _204
REMARK   89  A    between atoms: _204  and  _205
REMARK   90  A    between atoms: _207  and  _209
REMARK   91  A    between atoms: _209  and  _210
REMARK   92  A    between atoms: _209  and  _212
REMARK   93  A    between atoms: _212  and  _213
REMARK   94  A    between atoms: _219  and  _221
REMARK   95  A    between atoms: _221  and  _222
REMARK   96  A    between atoms: _221  and  _224
REMARK   97  A    between atoms: _224  and  _225
REMARK   98  A    between atoms: _230  and  _232
REMARK   99  A    between atoms: _232  and  _233
REMARK  100  A    between atoms: _232  and  _235
REMARK  101  A    between atoms: _235  and  _236
REMARK  102  A    between atoms: _239  and  _241
REMARK  103  A    between atoms: _241  and  _242
REMARK  104  A    between atoms: _241  and  _244
REMARK  105  A    between atoms: _247  and  _249
REMARK  106  A    between atoms: _249  and  _250
REMARK  107  A    between atoms: _252  and  _254
REMARK  108  A    between atoms: _254  and  _255
REMARK  109  A    between atoms: _257  and  _259
REMARK  110  A    between atoms: _259  and  _260
REMARK  111  A    between atoms: _259  and  _262
REMARK  112  A    between atoms: _262  and  _263
REMARK  113  A    between atoms: _266  and  _268
REMARK  114  A    between atoms: _268  and  _269
REMARK  115  A    between atoms: _268  and  _271
REMARK  116  A    between atoms: _271  and  _272
REMARK  117  A    between atoms: _275  and  _277
REMARK  118  A    between atoms: _277  and  _278
REMARK  119  A    between atoms: _277  and  _280
REMARK  120  A    between atoms: _280  and  _281
REMARK  121  A    between atoms: _284  and  _286
REMARK  122  A    between atoms: _286  and  _287
REMARK  123  A    between atoms: _286  and  _289
REMARK  124  A    between atoms: _289  and  _290
REMARK  125  A    between atoms: _290  and  _291
REMARK  126  A    between atoms: _291  and  _292
REMARK  127  A    between atoms: _301  and  _303
REMARK  128  A    between atoms: _303  and  _304
REMARK  129  A    between atoms: _303  and  _306
REMARK  130  A    between atoms: _306  and  _307
REMARK  131  A    between atoms: _317  and  _319
REMARK  132  A    between atoms: _319  and  _320
REMARK  133  A    between atoms: _319  and  _322
REMARK  134  A    between atoms: _325  and  _327
REMARK  135  A    between atoms: _327  and  _328
REMARK  136  A    between atoms: _327  and  _330
REMARK  137  A    between atoms: _333  and  _335
REMARK  138  A    between atoms: _335  and  _336
REMARK  139  A    between atoms: _335  and  _338
REMARK  140  A    between atoms: _338  and  _339
REMARK  141  A    between atoms: _342  and  _344
REMARK  142  A    between atoms: _344  and  _345
REMARK  143  A    between atoms: _344  and  _347
REMARK  144  A    between atoms: _349  and  _351
REMARK  145  A    between atoms: _351  and  _352
REMARK  146  A    between atoms: _355  and  _357
REMARK  147  A    between atoms: _357  and  _358
REMARK  148  A    between atoms: _357  and  _360
REMARK  149  A    between atoms: _360  and  _361
REMARK  150  A    between atoms: _361  and  _362
REMARK  151  A    between atoms: _362  and  _363
REMARK  152  A    between atoms: _372  and  _374
REMARK  153  A    between atoms: _374  and  _375
REMARK  154  A    between atoms: _378  and  _380
REMARK  155  A    between atoms: _380  and  _381
REMARK  156  A    between atoms: _380  and  _383
REMARK  157  A    between atoms: _383  and  _384
REMARK  158  A    between atoms: _389  and  _391
REMARK  159  A    between atoms: _391  and  _392
REMARK  160  A    between atoms: _391  and  _394
REMARK  161  A    between atoms: _394  and  _395
REMARK  162  A    between atoms: _395  and  _396
REMARK  163  A    between atoms: _396  and  _397
REMARK  164  A    between atoms: _397  and  _398
REMARK  165  A    between atoms: _402  and  _404
REMARK  166  A    between atoms: _404  and  _405
REMARK  167  A    between atoms: _404  and  _407
REMARK  168  A    between atoms: _407  and  _408
REMARK  169  A    between atoms: _408  and  _409
REMARK  170  A    between atoms: _414  and  _416
REMARK  171  A    between atoms: _416  and  _417
REMARK  172  A    between atoms: _416  and  _419
REMARK  173  A    between atoms: _419  and  _420
REMARK  174  A    between atoms: _423  and  _425
REMARK  175  A    between atoms: _425  and  _426
REMARK  176  A    between atoms: _425  and  _428
REMARK  177  A    between atoms: _428  and  _429
REMARK  178  A    between atoms: _433  and  _434
REMARK  179  A    between atoms: _439  and  _441
REMARK  180  A    between atoms: _441  and  _442
REMARK  181  A    between atoms: _441  and  _444
REMARK  182  A    between atoms: _444  and  _445
REMARK  183  A    between atoms: _447  and  _449
REMARK  184  A    between atoms: _449  and  _450
REMARK  185  A    between atoms: _449  and  _452
REMARK  186  A    between atoms: _454  and  _456
REMARK  187  A    between atoms: _456  and  _457
REMARK  188  A    between atoms: _460  and  _462
REMARK  189  A    between atoms: _462  and  _463
REMARK  190  A    between atoms: _462  and  _465
REMARK  191  A    between atoms: _465  and  _466
REMARK  192  A    between atoms: _469  and  _471
REMARK  193  A    between atoms: _471  and  _472
REMARK  194  A    between atoms: _471  and  _474
REMARK  195  A    between atoms: _474  and  _475
REMARK  196  A    between atoms: _477  and  _479
REMARK  197  A    between atoms: _479  and  _480
REMARK  198  A    between atoms: _482  and  _484
REMARK  199  A    between atoms: _484  and  _485
REMARK  200  A    between atoms: _484  and  _487
REMARK  201  A    between atoms: _487  and  _488
REMARK  202  A    between atoms: _491  and  _493
REMARK  203  A    between atoms: _493  and  _494
REMARK  204  A    between atoms: _493  and  _496
REMARK  205  A    between atoms: _496  and  _497
REMARK  206  A    between atoms: _500  and  _502
REMARK  207  A    between atoms: _502  and  _503
REMARK  208  A    between atoms: _502  and  _505
REMARK  209  A    between atoms: _505  and  _506
REMARK                            x       y       z     vdW  Elec       q    Type
REMARK                         _______ _______ _______ _____ _____    ______ ____
ROOT
ATOM      1  CA  LEU A   1      -2.779  -4.533  61.698  0.00  0.00    +0.133 C 
ENDROOT
BRANCH   1   2
ATOM      2  N   LEU A   1      -4.156  -4.590  62.217  0.00  0.00    -0.239 NA
ATOM      3  H   LEU A   1      -4.437  -3.955  62.991  0.00  0.00    +0.142 HD
ENDBRANCH   1   2
BRANCH   1   4
ATOM      4  C   LEU A   1      -1.958  -5.778  62.021  0.00  0.00    +0.224 C 
ATOM      5  O   LEU A   1      -1.335  -6.368  61.137  0.00  0.00    -0.287 OA
ENDBRANCH   1   4
BRANCH   1   6
ATOM      6  CB  LEU A   1      -2.059  -3.270  62.175  0.00  0.00    +0.025 C 
BRANCH   6   7
ATOM      7  CG  LEU A   1      -2.710  -1.937  61.769  0.00  0.00    +0.002 C 
ATOM      8  CD2 LEU A   1      -1.810  -0.779  62.150  0.00  0.00    +0.000 C 
ATOM      9  CD1 LEU A   1      -3.084  -1.878  60.280  0.00  0.00    +0.000 C 
ENDBRANCH   6   7
ENDBRANCH   1   6
TORSDOF 4
REMARK  Name = ../refined-set-2016/4kax/4kax_pocket.pdb
REMARK  209 active torsions:
REMARK  status: ('A' for Active; 'I' for Inactive)
REMARK    1  A    between atoms: _1  and  _3
REMARK    2  A    between atoms: _3  and  _4
REMARK    3  A    between atoms: _3  and  _6
REMARK    4  A    between atoms: _6  and  _7
REMARK    5  A    between atoms: _7  and  _8
REMARK    6  A    between atoms: _10  and  _12
REMARK    7  A    between atoms: _12  and  _13
REMARK    8  A    between atoms: _12  and  _15
REMARK    9  A    between atoms: _15  and  _16
REMARK   10  A    between atoms: _19  and  _21
REMARK   11  A    between atoms: _21  and  _22
REMARK   12  A    between atoms: _24  and  _26
REMARK   13  A    between atoms: _26  and  _27
REMARK   14  A    between atoms: _26  and  _29
REMARK   15  A    between atoms: _29  and  _30
REMARK   16  A    between atoms: _33  and  _35
REMARK   17  A    between atoms: _35  and  _36
REMARK   18  A    between atoms: _35  and  _38
REMARK   19  A    between atoms: _38  and  _39
REMARK   20  A    between atoms: _42  and  _44
REMARK   21  A    between atoms: _44  and  _45
REMARK   22  A    between atoms: _48  and  _50
REMARK   23  A    between atoms: _50  and  _51
REMARK   24  A    between atoms: _54  and  _56
REMARK   25  A    between atoms: _56  and  _57
REMARK   26  A    between atoms: _59  and  _61
REMARK   27  A    between atoms: _61  and  _62
REMARK   28  A    between atoms: _61  and  _64
REMARK   29  A    between atoms: _64  and  _65
REMARK   30  A    between atoms: _65  and  _66
REMARK   31  A    between atoms: _66  and  _67
REMARK   32  A    between atoms: _67  and  _68
REMARK   33  A    between atoms: _72  and  _74
REMARK   34  A    between atoms: _74  and  _75
REMARK   35  A    between atoms: _74  and  _77
REMARK   36  A    between atoms: _77  and  _78
REMARK   37  A    between atoms: _81  and  _83
REMARK   38  A    between atoms: _83  and  _84
REMARK   39  A    between atoms: _83  and  _86
REMARK   40  A    between atoms: _86  and  _87
REMARK   41  A    between atoms: _90  and  _92
REMARK   42  A    between atoms: _92  and  _93
REMARK   43  A    between atoms: _92  and  _95
REMARK   44  A    between atoms: _95  and  _96
REMARK   45  A    between atoms: _99  and  _101
REMARK   46  A    between atoms: _101  and  _102
REMARK   47  A    between atoms: _101  and  _104
REMARK   48  A    between atoms: _104  and  _105
REMARK   49  A    between atoms: _108  and  _110
REMARK   50  A    between atoms: _110  and  _111
REMARK   51  A    between atoms: _110  and  _113
REMARK   52  A    between atoms: _113  and  _114
REMARK   53  A    between atoms: _119  and  _120
REMARK   54  A    between atoms: _122  and  _124
REMARK   55  A    between atoms: _124  and  _125
REMARK   56  A    between atoms: _124  and  _127
REMARK   57  A    between atoms: _127  and  _128
REMARK   58  A    between atoms: _128  and  _129
REMARK   59  A    between atoms: _129  and  _130
REMARK   60  A    between atoms: _130  and  _131
REMARK   61  A    between atoms: _135  and  _137
REMARK   62  A    between atoms: _137  and  _138
REMARK   63  A    between atoms: _137  and  _140
REMARK   64  A    between atoms: _140  and  _141
REMARK   65  A    between atoms: _143  and  _145
REMARK   66  A    between atoms: _145  and  _146
REMARK   67  A    between atoms: _145  and  _148
REMARK   68  A    between atoms: _151  and  _153
REMARK   69  A    between atoms: _153  and  _154
REMARK   70  A    between atoms: _153  and  _156
REMARK   71  A    between atoms: _156  and  _157
REMARK   72  A    between atoms: _160  and  _162
REMARK   73  A    between atoms: _162  and  _163
REMARK   74  A    between atoms: _162  and  _165
REMARK   75  A    between atoms: _165  and  _166
REMARK   76  A    between atoms: _169  and  _171
REMARK   77  A    between atoms: _171  and  _172
REMARK   78  A    between atoms: _171  and  _174
REMARK   79  A    between atoms: _174  and  _175
REMARK   80  A    between atoms: _179  and  _180
REMARK   81  A    between atoms: _185  and  _187
REMARK   82  A    between atoms: _187  and  _188
REMARK   83  A    between atoms: _187  and  _190
REMARK   84  A    between atoms: _190  and  _191
REMARK   85  A    between atoms: _194  and  _196
REMARK   86  A    between atoms: _196  and  _197
REMARK   87  A    between atoms: _196  and  _199
REMARK   88  A    between atoms: _202  and  _204
REMARK   89  A    between atoms: _204  and  _205
REMARK   90  A    between atoms: _207  and  _209
REMARK   91  A    between atoms: _209  and  _210
REMARK   92  A    between atoms: _209  and  _212
REMARK   93  A    between atoms: _212  and  _213
REMARK   94  A    between atoms: _219  and  _221
REMARK   95  A    between atoms: _221  and  _222
REMARK   96  A    between atoms: _221  and  _224
REMARK   97  A    between atoms: _224  and  _225
REMARK   98  A    between atoms: _230  and  _232
REMARK   99  A    between atoms: _232  and  _233
REMARK  100  A    between atoms: _232  and  _235
REMARK  101  A    between atoms: _235  and  _236
REMARK  102  A    between atoms: _239  and  _241
REMARK  103  A    between atoms: _241  and  _242
REMARK  104  A    between atoms: _241  and  _244
REMARK  105  A    between atoms: _247  and  _249
REMARK  106  A    between atoms: _249  and  _250
REMARK  107  A    between atoms: _252  and  _254
REMARK  108  A    between atoms: _254  and  _255
REMARK  109  A    between atoms: _257  and  _259
REMARK  110  A    between atoms: _259  and  _260
REMARK  111  A    between atoms: _259  and  _262
REMARK  112  A    between atoms: _262  and  _263
REMARK  113  A    between atoms: _266  and  _268
REMARK  114  A    between atoms: _268  and  _269
REMARK  115  A    between atoms: _268  and  _271
REMARK  116  A    between atoms: _271  and  _272
REMARK  117  A    between atoms: _275  and  _277
REMARK  118  A    between atoms: _277  and  _278
REMARK  119  A    between atoms: _277  and  _280
REMARK  120  A    between atoms: _280  and  _281
REMARK  121  A    between atoms: _284  and  _286
REMARK  122  A    between atoms: _286  and  _287
REMARK  123  A    between atoms: _286  and  _289
REMARK  124  A    between atoms: _289  and  _290
REMARK  125  A    between atoms: _290  and  _291
REMARK  126  A    between atoms: _291  and  _292
REMARK  127  A    between atoms: _301  and  _303
REMARK  128  A    between atoms: _303  and  _304
REMARK  129  A    between atoms: _303  and  _306
REMARK  130  A    between atoms: _306  and  _307
REMARK  131  A    between atoms: _317  and  _319
REMARK  132  A    between atoms: _319  and  _320
REMARK  133  A    between atoms: _319  and  _322
REMARK  134  A    between atoms: _325  and  _327
REMARK  135  A    between atoms: _327  and  _328
REMARK  136  A    between atoms: _327  and  _330
REMARK  137  A    between atoms: _333  and  _335
REMARK  138  A    between atoms: _335  and  _336
REMARK  139  A    between atoms: _335  and  _338
REMARK  140  A    between atoms: _338  and  _339
REMARK  141  A    between atoms: _342  and  _344
REMARK  142  A    between atoms: _344  and  _345
REMARK  143  A    between atoms: _344  and  _347
REMARK  144  A    between atoms: _349  and  _351
REMARK  145  A    between atoms: _351  and  _352
REMARK  146  A    between atoms: _355  and  _357
REMARK  147  A    between atoms: _357  and  _358
REMARK  148  A    between atoms: _357  and  _360
REMARK  149  A    between atoms: _360  and  _361
REMARK  150  A    between atoms: _361  and  _362
REMARK  151  A    between atoms: _362  and  _363
REMARK  152  A    between atoms: _372  and  _374
REMARK  153  A    between atoms: _374  and  _375
REMARK  154  A    between atoms: _378  and  _380
REMARK  155  A    between atoms: _380  and  _381
REMARK  156  A    between atoms: _380  and  _383
REMARK  157  A    between atoms: _383  and  _384
REMARK  158  A    between atoms: _389  and  _391
REMARK  159  A    between atoms: _391  and  _392
REMARK  160  A    between atoms: _391  and  _394
REMARK  161  A    between atoms: _394  and  _395
REMARK  162  A    between atoms: _395  and  _396
REMARK  163  A    between atoms: _396  and  _397
REMARK  164  A    between atoms: _397  and  _398
REMARK  165  A    between atoms: _402  and  _404
REMARK  166  A    between atoms: _404  and  _405
REMARK  167  A    between atoms: _404  and  _407
REMARK  168  A    between atoms: _407  and  _408
REMARK  169  A    between atoms: _408  and  _409
REMARK  170  A    between atoms: _414  and  _416
REMARK  171  A    between atoms: _416  and  _417
REMARK  172  A    between atoms: _416  and  _419
REMARK  173  A    between atoms: _419  and  _420
REMARK  174  A    between atoms: _423  and  _425
REMARK  175  A    between atoms: _425  and  _426
REMARK  176  A    between atoms: _425  and  _428
REMARK  177  A    between atoms: _428  and  _429
REMARK  178  A    between atoms: _433  and  _434
REMARK  179  A    between atoms: _439  and  _441
REMARK  180  A    between atoms: _441  and  _442
REMARK  181  A    between atoms: _441  and  _444
REMARK  182  A    between atoms: _444  and  _445
REMARK  183  A    between atoms: _447  and  _449
REMARK  184  A    between atoms: _449  and  _450
REMARK  185  A    between atoms: _449  and  _452
REMARK  186  A    between atoms: _454  and  _456
REMARK  187  A    between atoms: _456  and  _457
REMARK  188  A    between atoms: _460  and  _462
REMARK  189  A    between atoms: _462  and  _463
REMARK  190  A    between atoms: _462  and  _465
REMARK  191  A    between atoms: _465  and  _466
REMARK  192  A    between atoms: _469  and  _471
REMARK  193  A    between atoms: _471  and  _472
REMARK  194  A    between atoms: _471  and  _474
REMARK  195  A    between atoms: _474  and  _475
REMARK  196  A    between atoms: _477  and  _479
REMARK  197  A    between atoms: _479  and  _480
REMARK  198  A    between atoms: _482  and  _484
REMARK  199  A    between atoms: _484  and  _485
REMARK  200  A    between atoms: _484  and  _487
REMARK  201  A    between atoms: _487  and  _488
REMARK  202  A    between atoms: _491  and  _493
REMARK  203  A    between atoms: _493  and  _494
REMARK  204  A    between atoms: _493  and  _496
REMARK  205  A    between atoms: _496  and  _497
REMARK  206  A    between atoms: _500  and  _502
REMARK  207  A    between atoms: _502  and  _503
REMARK  208  A    between atoms: _502  and  _505
REMARK  209  A    between atoms: _505  and  _506
REMARK                            x       y       z     vdW  Elec       q    Type
REMARK                         _______ _______ _______ _____ _____    ______ ____
ROOT
ATOM      1  CB  PHE A   1       5.867  15.148  59.910  0.00  0.00    +0.051 C 
ENDROOT
BRANCH   1   2
ATOM      2  CG  PHE A   1       5.621  13.687  59.592  0.00  0.00    -0.020 A 
ATOM      3  CD2 PHE A   1       4.830  12.900  60.423  0.00  0.00    -0.004 A 
ATOM      4  CE2 PHE A   1       4.598  11.554  60.132  0.00  0.00    -0.000 A 
ATOM      5  CZ  PHE A   1       5.146  10.985  58.985  0.00  0.00    -0.000 A 
ATOM      6  CE1 PHE A   1       5.930  11.762  58.141  0.00  0.00    -0.000 A 
ATOM      7  CD1 PHE A   1       6.161  13.110  58.447  0.00  0.00    -0.004 A 
ENDBRANCH   1   2
BRANCH   1   8
ATOM      8  CA  PHE A   1       6.822  15.391  61.095  0.00  0.00    +0.137 C 
BRANCH   8   9
ATOM      9  N   PHE A   1       7.078  16.832  61.261  0.00  0.00    -0.239 NA
ATOM     10  H   PHE A   1       6.502  17.501  60.711  0.00  0.00    +0.142 HD
ENDBRANCH   8   9
BRANCH   8  11
ATOM     11  C   PHE A   1       8.098  14.558  60.933  0.00  0.00    +0.224 C 
ATOM     12  O   PHE A   1       8.244  13.506  61.563  0.00  0.00    -0.287 OA
ENDBRANCH   8  11
ENDBRANCH   1   8
TORSDOF 4
REMARK  Name = ../refined-set-2016/4kax/4kax_pocket.pdb
REMARK  209 active torsions:
REMARK  status: ('A' for Active; 'I' for Inactive)
REMARK    1  A    between atoms: _1  and  _3
REMARK    2  A    between atoms: _3  and  _4
REMARK    3  A    between atoms: _3  and  _6
REMARK    4  A    between atoms: _6  and  _7
REMARK    5  A    between atoms: _7  and  _8
REMARK    6  A    between atoms: _10  and  _12
REMARK    7  A    between atoms: _12  and  _13
REMARK    8  A    between atoms: _12  and  _15
REMARK    9  A    between atoms: _15  and  _16
REMARK   10  A    between atoms: _19  and  _21
REMARK   11  A    between atoms: _21  and  _22
REMARK   12  A    between atoms: _24  and  _26
REMARK   13  A    between atoms: _26  and  _27
REMARK   14  A    between atoms: _26  and  _29
REMARK   15  A    between atoms: _29  and  _30
REMARK   16  A    between atoms: _33  and  _35
REMARK   17  A    between atoms: _35  and  _36
REMARK   18  A    between atoms: _35  and  _38
REMARK   19  A    between atoms: _38  and  _39
REMARK   20  A    between atoms: _42  and  _44
REMARK   21  A    between atoms: _44  and  _45
REMARK   22  A    between atoms: _48  and  _50
REMARK   23  A    between atoms: _50  and  _51
REMARK   24  A    between atoms: _54  and  _56
REMARK   25  A    between atoms: _56  and  _57
REMARK   26  A    between atoms: _59  and  _61
REMARK   27  A    between atoms: _61  and  _62
REMARK   28  A    between atoms: _61  and  _64
REMARK   29  A    between atoms: _64  and  _65
REMARK   30  A    between atoms: _65  and  _66
REMARK   31  A    between atoms: _66  and  _67
REMARK   32  A    between atoms: _67  and  _68
REMARK   33  A    between atoms: _72  and  _74
REMARK   34  A    between atoms: _74  and  _75
REMARK   35  A    between atoms: _74  and  _77
REMARK   36  A    between atoms: _77  and  _78
REMARK   37  A    between atoms: _81  and  _83
REMARK   38  A    between atoms: _83  and  _84
REMARK   39  A    between atoms: _83  and  _86
REMARK   40  A    between atoms: _86  and  _87
REMARK   41  A    between atoms: _90  and  _92
REMARK   42  A    between atoms: _92  and  _93
REMARK   43  A    between atoms: _92  and  _95
REMARK   44  A    between atoms: _95  and  _96
REMARK   45  A    between atoms: _99  and  _101
REMARK   46  A    between atoms: _101  and  _102
REMARK   47  A    between atoms: _101  and  _104
REMARK   48  A    between atoms: _104  and  _105
REMARK   49  A    between atoms: _108  and  _110
REMARK   50  A    between atoms: _110  and  _111
REMARK   51  A    between atoms: _110  and  _113
REMARK   52  A    between atoms: _113  and  _114
REMARK   53  A    between atoms: _119  and  _120
REMARK   54  A    between atoms: _122  and  _124
REMARK   55  A    between atoms: _124  and  _125
REMARK   56  A    between atoms: _124  and  _127
REMARK   57  A    between atoms: _127  and  _128
REMARK   58  A    between atoms: _128  and  _129
REMARK   59  A    between atoms: _129  and  _130
REMARK   60  A    between atoms: _130  and  _131
REMARK   61  A    between atoms: _135  and  _137
REMARK   62  A    between atoms: _137  and  _138
REMARK   63  A    between atoms: _137  and  _140
REMARK   64  A    between atoms: _140  and  _141
REMARK   65  A    between atoms: _143  and  _145
REMARK   66  A    between atoms: _145  and  _146
REMARK   67  A    between atoms: _145  and  _148
REMARK   68  A    between atoms: _151  and  _153
REMARK   69  A    between atoms: _153  and  _154
REMARK   70  A    between atoms: _153  and  _156
REMARK   71  A    between atoms: _156  and  _157
REMARK   72  A    between atoms: _160  and  _162
REMARK   73  A    between atoms: _162  and  _163
REMARK   74  A    between atoms: _162  and  _165
REMARK   75  A    between atoms: _165  and  _166
REMARK   76  A    between atoms: _169  and  _171
REMARK   77  A    between atoms: _171  and  _172
REMARK   78  A    between atoms: _171  and  _174
REMARK   79  A    between atoms: _174  and  _175
REMARK   80  A    between atoms: _179  and  _180
REMARK   81  A    between atoms: _185  and  _187
REMARK   82  A    between atoms: _187  and  _188
REMARK   83  A    between atoms: _187  and  _190
REMARK   84  A    between atoms: _190  and  _191
REMARK   85  A    between atoms: _194  and  _196
REMARK   86  A    between atoms: _196  and  _197
REMARK   87  A    between atoms: _196  and  _199
REMARK   88  A    between atoms: _202  and  _204
REMARK   89  A    between atoms: _204  and  _205
REMARK   90  A    between atoms: _207  and  _209
REMARK   91  A    between atoms: _209  and  _210
REMARK   92  A    between atoms: _209  and  _212
REMARK   93  A    between atoms: _212  and  _213
REMARK   94  A    between atoms: _219  and  _221
REMARK   95  A    between atoms: _221  and  _222
REMARK   96  A    between atoms: _221  and  _224
REMARK   97  A    between atoms: _224  and  _225
REMARK   98  A    between atoms: _230  and  _232
REMARK   99  A    between atoms: _232  and  _233
REMARK  100  A    between atoms: _232  and  _235
REMARK  101  A    between atoms: _235  and  _236
REMARK  102  A    between atoms: _239  and  _241
REMARK  103  A    between atoms: _241  and  _242
REMARK  104  A    between atoms: _241  and  _244
REMARK  105  A    between atoms: _247  and  _249
REMARK  106  A    between atoms: _249  and  _250
REMARK  107  A    between atoms: _252  and  _254
REMARK  108  A    between atoms: _254  and  _255
REMARK  109  A    between atoms: _257  and  _259
REMARK  110  A    between atoms: _259  and  _260
REMARK  111  A    between atoms: _259  and  _262
REMARK  112  A    between atoms: _262  and  _263
REMARK  113  A    between atoms: _266  and  _268
REMARK  114  A    between atoms: _268  and  _269
REMARK  115  A    between atoms: _268  and  _271
REMARK  116  A    between atoms: _271  and  _272
REMARK  117  A    between atoms: _275  and  _277
REMARK  118  A    between atoms: _277  and  _278
REMARK  119  A    between atoms: _277  and  _280
REMARK  120  A    between atoms: _280  and  _281
REMARK  121  A    between atoms: _284  and  _286
REMARK  122  A    between atoms: _286  and  _287
REMARK  123  A    between atoms: _286  and  _289
REMARK  124  A    between atoms: _289  and  _290
REMARK  125  A    between atoms: _290  and  _291
REMARK  126  A    between atoms: _291  and  _292
REMARK  127  A    between atoms: _301  and  _303
REMARK  128  A    between atoms: _303  and  _304
REMARK  129  A    between atoms: _303  and  _306
REMARK  130  A    between atoms: _306  and  _307
REMARK  131  A    between atoms: _317  and  _319
REMARK  132  A    between atoms: _319  and  _320
REMARK  133  A    between atoms: _319  and  _322
REMARK  134  A    between atoms: _325  and  _327
REMARK  135  A    between atoms: _327  and  _328
REMARK  136  A    between atoms: _327  and  _330
REMARK  137  A    between atoms: _333  and  _335
REMARK  138  A    between atoms: _335  and  _336
REMARK  139  A    between atoms: _335  and  _338
REMARK  140  A    between atoms: _338  and  _339
REMARK  141  A    between atoms: _342  and  _344
REMARK  142  A    between atoms: _344  and  _345
REMARK  143  A    between atoms: _344  and  _347
REMARK  144  A    between atoms: _349  and  _351
REMARK  145  A    between atoms: _351  and  _352
REMARK  146  A    between atoms: _355  and  _357
REMARK  147  A    between atoms: _357  and  _358
REMARK  148  A    between atoms: _357  and  _360
REMARK  149  A    between atoms: _360  and  _361
REMARK  150  A    between atoms: _361  and  _362
REMARK  151  A    between atoms: _362  and  _363
REMARK  152  A    between atoms: _372  and  _374
REMARK  153  A    between atoms: _374  and  _375
REMARK  154  A    between atoms: _378  and  _380
REMARK  155  A    between atoms: _380  and  _381
REMARK  156  A    between atoms: _380  and  _383
REMARK  157  A    between atoms: _383  and  _384
REMARK  158  A    between atoms: _389  and  _391
REMARK  159  A    between atoms: _391  and  _392
REMARK  160  A    between atoms: _391  and  _394
REMARK  161  A    between atoms: _394  and  _395
REMARK  162  A    between atoms: _395  and  _396
REMARK  163  A    between atoms: _396  and  _397
REMARK  164  A    between atoms: _397  and  _398
REMARK  165  A    between atoms: _402  and  _404
REMARK  166  A    between atoms: _404  and  _405
REMARK  167  A    between atoms: _404  and  _407
REMARK  168  A    between atoms: _407  and  _408
REMARK  169  A    between atoms: _408  and  _409
REMARK  170  A    between atoms: _414  and  _416
REMARK  171  A    between atoms: _416  and  _417
REMARK  172  A    between atoms: _416  and  _419
REMARK  173  A    between atoms: _419  and  _420
REMARK  174  A    between atoms: _423  and  _425
REMARK  175  A    between atoms: _425  and  _426
REMARK  176  A    between atoms: _425  and  _428
REMARK  177  A    between atoms: _428  and  _429
REMARK  178  A    between atoms: _433  and  _434
REMARK  179  A    between atoms: _439  and  _441
REMARK  180  A    between atoms: _441  and  _442
REMARK  181  A    between atoms: _441  and  _444
REMARK  182  A    between atoms: _444  and  _445
REMARK  183  A    between atoms: _447  and  _449
REMARK  184  A    between atoms: _449  and  _450
REMARK  185  A    between atoms: _449  and  _452
REMARK  186  A    between atoms: _454  and  _456
REMARK  187  A    between atoms: _456  and  _457
REMARK  188  A    between atoms: _460  and  _462
REMARK  189  A    between atoms: _462  and  _463
REMARK  190  A    between atoms: _462  and  _465
REMARK  191  A    between atoms: _465  and  _466
REMARK  192  A    between atoms: _469  and  _471
REMARK  193  A    between atoms: _471  and  _472
REMARK  194  A    between atoms: _471  and  _474
REMARK  195  A    between atoms: _474  and  _475
REMARK  196  A    between atoms: _477  and  _479
REMARK  197  A    between atoms: _479  and  _480
REMARK  198  A    between atoms: _482  and  _484
REMARK  199  A    between atoms: _484  and  _485
REMARK  200  A    between atoms: _484  and  _487
REMARK  201  A    between atoms: _487  and  _488
REMARK  202  A    between atoms: _491  and  _493
REMARK  203  A    between atoms: _493  and  _494
REMARK  204  A    between atoms: _493  and  _496
REMARK  205  A    between atoms: _496  and  _497
REMARK  206  A    between atoms: _500  and  _502
REMARK  207  A    between atoms: _502  and  _503
REMARK  208  A    between atoms: _502  and  _505
REMARK  209  A    between atoms: _505  and  _506
REMARK                            x       y       z     vdW  Elec       q    Type
REMARK                         _______ _______ _______ _____ _____    ______ ____
ROOT
ATOM      1 MG   UNL     1       2.287   8.306  53.163  0.00  0.00    +0.000 Mg
ATOM      2  O   UNL     1       1.739   9.790  54.422  0.00  0.00    +0.000 OA
ATOM      3  O   UNL     1       2.787   6.927  51.723  0.00  0.00    +0.000 OA
ENDROOT
TORSDOF 0
REMARK  Name = ../refined-set-2016/4kax/4kax_pocket.pdb
REMARK  209 active torsions:
REMARK  status: ('A' for Active; 'I' for Inactive)
REMARK    1  A    between atoms: _1  and  _3
REMARK    2  A    between atoms: _3  and  _4
REMARK    3  A    between atoms: _3  and  _6
REMARK    4  A    between atoms: _6  and  _7
REMARK    5  A    between atoms: _7  and  _8
REMARK    6  A    between atoms: _10  and  _12
REMARK    7  A    between atoms: _12  and  _13
REMARK    8  A    between atoms: _12  and  _15
REMARK    9  A    between atoms: _15  and  _16
REMARK   10  A    between atoms: _19  and  _21
REMARK   11  A    between atoms: _21  and  _22
REMARK   12  A    between atoms: _24  and  _26
REMARK   13  A    between atoms: _26  and  _27
REMARK   14  A    between atoms: _26  and  _29
REMARK   15  A    between atoms: _29  and  _30
REMARK   16  A    between atoms: _33  and  _35
REMARK   17  A    between atoms: _35  and  _36
REMARK   18  A    between atoms: _35  and  _38
REMARK   19  A    between atoms: _38  and  _39
REMARK   20  A    between atoms: _42  and  _44
REMARK   21  A    between atoms: _44  and  _45
REMARK   22  A    between atoms: _48  and  _50
REMARK   23  A    between atoms: _50  and  _51
REMARK   24  A    between atoms: _54  and  _56
REMARK   25  A    between atoms: _56  and  _57
REMARK   26  A    between atoms: _59  and  _61
REMARK   27  A    between atoms: _61  and  _62
REMARK   28  A    between atoms: _61  and  _64
REMARK   29  A    between atoms: _64  and  _65
REMARK   30  A    between atoms: _65  and  _66
REMARK   31  A    between atoms: _66  and  _67
REMARK   32  A    between atoms: _67  and  _68
REMARK   33  A    between atoms: _72  and  _74
REMARK   34  A    between atoms: _74  and  _75
REMARK   35  A    between atoms: _74  and  _77
REMARK   36  A    between atoms: _77  and  _78
REMARK   37  A    between atoms: _81  and  _83
REMARK   38  A    between atoms: _83  and  _84
REMARK   39  A    between atoms: _83  and  _86
REMARK   40  A    between atoms: _86  and  _87
REMARK   41  A    between atoms: _90  and  _92
REMARK   42  A    between atoms: _92  and  _93
REMARK   43  A    between atoms: _92  and  _95
REMARK   44  A    between atoms: _95  and  _96
REMARK   45  A    between atoms: _99  and  _101
REMARK   46  A    between atoms: _101  and  _102
REMARK   47  A    between atoms: _101  and  _104
REMARK   48  A    between atoms: _104  and  _105
REMARK   49  A    between atoms: _108  and  _110
REMARK   50  A    between atoms: _110  and  _111
REMARK   51  A    between atoms: _110  and  _113
REMARK   52  A    between atoms: _113  and  _114
REMARK   53  A    between atoms: _119  and  _120
REMARK   54  A    between atoms: _122  and  _124
REMARK   55  A    between atoms: _124  and  _125
REMARK   56  A    between atoms: _124  and  _127
REMARK   57  A    between atoms: _127  and  _128
REMARK   58  A    between atoms: _128  and  _129
REMARK   59  A    between atoms: _129  and  _130
REMARK   60  A    between atoms: _130  and  _131
REMARK   61  A    between atoms: _135  and  _137
REMARK   62  A    between atoms: _137  and  _138
REMARK   63  A    between atoms: _137  and  _140
REMARK   64  A    between atoms: _140  and  _141
REMARK   65  A    between atoms: _143  and  _145
REMARK   66  A    between atoms: _145  and  _146
REMARK   67  A    between atoms: _145  and  _148
REMARK   68  A    between atoms: _151  and  _153
REMARK   69  A    between atoms: _153  and  _154
REMARK   70  A    between atoms: _153  and  _156
REMARK   71  A    between atoms: _156  and  _157
REMARK   72  A    between atoms: _160  and  _162
REMARK   73  A    between atoms: _162  and  _163
REMARK   74  A    between atoms: _162  and  _165
REMARK   75  A    between atoms: _165  and  _166
REMARK   76  A    between atoms: _169  and  _171
REMARK   77  A    between atoms: _171  and  _172
REMARK   78  A    between atoms: _171  and  _174
REMARK   79  A    between atoms: _174  and  _175
REMARK   80  A    between atoms: _179  and  _180
REMARK   81  A    between atoms: _185  and  _187
REMARK   82  A    between atoms: _187  and  _188
REMARK   83  A    between atoms: _187  and  _190
REMARK   84  A    between atoms: _190  and  _191
REMARK   85  A    between atoms: _194  and  _196
REMARK   86  A    between atoms: _196  and  _197
REMARK   87  A    between atoms: _196  and  _199
REMARK   88  A    between atoms: _202  and  _204
REMARK   89  A    between atoms: _204  and  _205
REMARK   90  A    between atoms: _207  and  _209
REMARK   91  A    between atoms: _209  and  _210
REMARK   92  A    between atoms: _209  and  _212
REMARK   93  A    between atoms: _212  and  _213
REMARK   94  A    between atoms: _219  and  _221
REMARK   95  A    between atoms: _221  and  _222
REMARK   96  A    between atoms: _221  and  _224
REMARK   97  A    between atoms: _224  and  _225
REMARK   98  A    between atoms: _230  and  _232
REMARK   99  A    between atoms: _232  and  _233
REMARK  100  A    between atoms: _232  and  _235
REMARK  101  A    between atoms: _235  and  _236
REMARK  102  A    between atoms: _239  and  _241
REMARK  103  A    between atoms: _241  and  _242
REMARK  104  A    between atoms: _241  and  _244
REMARK  105  A    between atoms: _247  and  _249
REMARK  106  A    between atoms: _249  and  _250
REMARK  107  A    between atoms: _252  and  _254
REMARK  108  A    between atoms: _254  and  _255
REMARK  109  A    between atoms: _257  and  _259
REMARK  110  A    between atoms: _259  and  _260
REMARK  111  A    between atoms: _259  and  _262
REMARK  112  A    between atoms: _262  and  _263
REMARK  113  A    between atoms: _266  and  _268
REMARK  114  A    between atoms: _268  and  _269
REMARK  115  A    between atoms: _268  and  _271
REMARK  116  A    between atoms: _271  and  _272
REMARK  117  A    between atoms: _275  and  _277
REMARK  118  A    between atoms: _277  and  _278
REMARK  119  A    between atoms: _277  and  _280
REMARK  120  A    between atoms: _280  and  _281
REMARK  121  A    between atoms: _284  and  _286
REMARK  122  A    between atoms: _286  and  _287
REMARK  123  A    between atoms: _286  and  _289
REMARK  124  A    between atoms: _289  and  _290
REMARK  125  A    between atoms: _290  and  _291
REMARK  126  A    between atoms: _291  and  _292
REMARK  127  A    between atoms: _301  and  _303
REMARK  128  A    between atoms: _303  and  _304
REMARK  129  A    between atoms: _303  and  _306
REMARK  130  A    between atoms: _306  and  _307
REMARK  131  A    between atoms: _317  and  _319
REMARK  132  A    between atoms: _319  and  _320
REMARK  133  A    between atoms: _319  and  _322
REMARK  134  A    between atoms: _325  and  _327
REMARK  135  A    between atoms: _327  and  _328
REMARK  136  A    between atoms: _327  and  _330
REMARK  137  A    between atoms: _333  and  _335
REMARK  138  A    between atoms: _335  and  _336
REMARK  139  A    between atoms: _335  and  _338
REMARK  140  A    between atoms: _338  and  _339
REMARK  141  A    between atoms: _342  and  _344
REMARK  142  A    between atoms: _344  and  _345
REMARK  143  A    between atoms: _344  and  _347
REMARK  144  A    between atoms: _349  and  _351
REMARK  145  A    between atoms: _351  and  _352
REMARK  146  A    between atoms: _355  and  _357
REMARK  147  A    between atoms: _357  and  _358
REMARK  148  A    between atoms: _357  and  _360
REMARK  149  A    between atoms: _360  and  _361
REMARK  150  A    between atoms: _361  and  _362
REMARK  151  A    between atoms: _362  and  _363
REMARK  152  A    between atoms: _372  and  _374
REMARK  153  A    between atoms: _374  and  _375
REMARK  154  A    between atoms: _378  and  _380
REMARK  155  A    between atoms: _380  and  _381
REMARK  156  A    between atoms: _380  and  _383
REMARK  157  A    between atoms: _383  and  _384
REMARK  158  A    between atoms: _389  and  _391
REMARK  159  A    between atoms: _391  and  _392
REMARK  160  A    between atoms: _391  and  _394
REMARK  161  A    between atoms: _394  and  _395
REMARK  162  A    between atoms: _395  and  _396
REMARK  163  A    between atoms: _396  and  _397
REMARK  164  A    between atoms: _397  and  _398
REMARK  165  A    between atoms: _402  and  _404
REMARK  166  A    between atoms: _404  and  _405
REMARK  167  A    between atoms: _404  and  _407
REMARK  168  A    between atoms: _407  and  _408
REMARK  169  A    between atoms: _408  and  _409
REMARK  170  A    between atoms: _414  and  _416
REMARK  171  A    between atoms: _416  and  _417
REMARK  172  A    between atoms: _416  and  _419
REMARK  173  A    between atoms: _419  and  _420
REMARK  174  A    between atoms: _423  and  _425
REMARK  175  A    between atoms: _425  and  _426
REMARK  176  A    between atoms: _425  and  _428
REMARK  177  A    between atoms: _428  and  _429
REMARK  178  A    between atoms: _433  and  _434
REMARK  179  A    between atoms: _439  and  _441
REMARK  180  A    between atoms: _441  and  _442
REMARK  181  A    between atoms: _441  and  _444
REMARK  182  A    between atoms: _444  and  _445
REMARK  183  A    between atoms: _447  and  _449
REMARK  184  A    between atoms: _449  and  _450
REMARK  185  A    between atoms: _449  and  _452
REMARK  186  A    between atoms: _454  and  _456
REMARK  187  A    between atoms: _456  and  _457
REMARK  188  A    between atoms: _460  and  _462
REMARK  189  A    between atoms: _462  and  _463
REMARK  190  A    between atoms: _462  and  _465
REMARK  191  A    between atoms: _465  and  _466
REMARK  192  A    between atoms: _469  and  _471
REMARK  193  A    between atoms: _471  and  _472
REMARK  194  A    between atoms: _471  and  _474
REMARK  195  A    between atoms: _474  and  _475
REMARK  196  A    between atoms: _477  and  _479
REMARK  197  A    between atoms: _479  and  _480
REMARK  198  A    between atoms: _482  and  _484
REMARK  199  A    between atoms: _484  and  _485
REMARK  200  A    between atoms: _484  and  _487
REMARK  201  A    between atoms: _487  and  _488
REMARK  202  A    between atoms: _491  and  _493
REMARK  203  A    between atoms: _493  and  _494
REMARK  204  A    between atoms: _493  and  _496
REMARK  205  A    between atoms: _496  and  _497
REMARK  206  A    between atoms: _500  and  _502
REMARK  207  A    between atoms: _502  and  _503
REMARK  208  A    between atoms: _502  and  _505
REMARK  209  A    between atoms: _505  and  _506
REMARK                            x       y       z     vdW  Elec       q    Type
REMARK                         _______ _______ _______ _____ _____    ______ ____
ROOT
ATOM      1  O   HOH     1      -5.881   2.756  47.569  0.00  0.00    +0.000 OA
ENDROOT
TORSDOF 0
REMARK  Name = ../refined-set-2016/4kax/4kax_pocket.pdb
REMARK  209 active torsions:
REMARK  status: ('A' for Active; 'I' for Inactive)
REMARK    1  A    between atoms: _1  and  _3
REMARK    2  A    between atoms: _3  and  _4
REMARK    3  A    between atoms: _3  and  _6
REMARK    4  A    between atoms: _6  and  _7
REMARK    5  A    between atoms: _7  and  _8
REMARK    6  A    between atoms: _10  and  _12
REMARK    7  A    between atoms: _12  and  _13
REMARK    8  A    between atoms: _12  and  _15
REMARK    9  A    between atoms: _15  and  _16
REMARK   10  A    between atoms: _19  and  _21
REMARK   11  A    between atoms: _21  and  _22
REMARK   12  A    between atoms: _24  and  _26
REMARK   13  A    between atoms: _26  and  _27
REMARK   14  A    between atoms: _26  and  _29
REMARK   15  A    between atoms: _29  and  _30
REMARK   16  A    between atoms: _33  and  _35
REMARK   17  A    between atoms: _35  and  _36
REMARK   18  A    between atoms: _35  and  _38
REMARK   19  A    between atoms: _38  and  _39
REMARK   20  A    between atoms: _42  and  _44
REMARK   21  A    between atoms: _44  and  _45
REMARK   22  A    between atoms: _48  and  _50
REMARK   23  A    between atoms: _50  and  _51
REMARK   24  A    between atoms: _54  and  _56
REMARK   25  A    between atoms: _56  and  _57
REMARK   26  A    between atoms: _59  and  _61
REMARK   27  A    between atoms: _61  and  _62
REMARK   28  A    between atoms: _61  and  _64
REMARK   29  A    between atoms: _64  and  _65
REMARK   30  A    between atoms: _65  and  _66
REMARK   31  A    between atoms: _66  and  _67
REMARK   32  A    between atoms: _67  and  _68
REMARK   33  A    between atoms: _72  and  _74
REMARK   34  A    between atoms: _74  and  _75
REMARK   35  A    between atoms: _74  and  _77
REMARK   36  A    between atoms: _77  and  _78
REMARK   37  A    between atoms: _81  and  _83
REMARK   38  A    between atoms: _83  and  _84
REMARK   39  A    between atoms: _83  and  _86
REMARK   40  A    between atoms: _86  and  _87
REMARK   41  A    between atoms: _90  and  _92
REMARK   42  A    between atoms: _92  and  _93
REMARK   43  A    between atoms: _92  and  _95
REMARK   44  A    between atoms: _95  and  _96
REMARK   45  A    between atoms: _99  and  _101
REMARK   46  A    between atoms: _101  and  _102
REMARK   47  A    between atoms: _101  and  _104
REMARK   48  A    between atoms: _104  and  _105
REMARK   49  A    between atoms: _108  and  _110
REMARK   50  A    between atoms: _110  and  _111
REMARK   51  A    between atoms: _110  and  _113
REMARK   52  A    between atoms: _113  and  _114
REMARK   53  A    between atoms: _119  and  _120
REMARK   54  A    between atoms: _122  and  _124
REMARK   55  A    between atoms: _124  and  _125
REMARK   56  A    between atoms: _124  and  _127
REMARK   57  A    between atoms: _127  and  _128
REMARK   58  A    between atoms: _128  and  _129
REMARK   59  A    between atoms: _129  and  _130
REMARK   60  A    between atoms: _130  and  _131
REMARK   61  A    between atoms: _135  and  _137
REMARK   62  A    between atoms: _137  and  _138
REMARK   63  A    between atoms: _137  and  _140
REMARK   64  A    between atoms: _140  and  _141
REMARK   65  A    between atoms: _143  and  _145
REMARK   66  A    between atoms: _145  and  _146
REMARK   67  A    between atoms: _145  and  _148
REMARK   68  A    between atoms: _151  and  _153
REMARK   69  A    between atoms: _153  and  _154
REMARK   70  A    between atoms: _153  and  _156
REMARK   71  A    between atoms: _156  and  _157
REMARK   72  A    between atoms: _160  and  _162
REMARK   73  A    between atoms: _162  and  _163
REMARK   74  A    between atoms: _162  and  _165
REMARK   75  A    between atoms: _165  and  _166
REMARK   76  A    between atoms: _169  and  _171
REMARK   77  A    between atoms: _171  and  _172
REMARK   78  A    between atoms: _171  and  _174
REMARK   79  A    between atoms: _174  and  _175
REMARK   80  A    between atoms: _179  and  _180
REMARK   81  A    between atoms: _185  and  _187
REMARK   82  A    between atoms: _187  and  _188
REMARK   83  A    between atoms: _187  and  _190
REMARK   84  A    between atoms: _190  and  _191
REMARK   85  A    between atoms: _194  and  _196
REMARK   86  A    between atoms: _196  and  _197
REMARK   87  A    between atoms: _196  and  _199
REMARK   88  A    between atoms: _202  and  _204
REMARK   89  A    between atoms: _204  and  _205
REMARK   90  A    between atoms: _207  and  _209
REMARK   91  A    between atoms: _209  and  _210
REMARK   92  A    between atoms: _209  and  _212
REMARK   93  A    between atoms: _212  and  _213
REMARK   94  A    between atoms: _219  and  _221
REMARK   95  A    between atoms: _221  and  _222
REMARK   96  A    between atoms: _221  and  _224
REMARK   97  A    between atoms: _224  and  _225
REMARK   98  A    between atoms: _230  and  _232
REMARK   99  A    between atoms: _232  and  _233
REMARK  100  A    between atoms: _232  and  _235
REMARK  101  A    between atoms: _235  and  _236
REMARK  102  A    between atoms: _239  and  _241
REMARK  103  A    between atoms: _241  and  _242
REMARK  104  A    between atoms: _241  and  _244
REMARK  105  A    between atoms: _247  and  _249
REMARK  106  A    between atoms: _249  and  _250
REMARK  107  A    between atoms: _252  and  _254
REMARK  108  A    between atoms: _254  and  _255
REMARK  109  A    between atoms: _257  and  _259
REMARK  110  A    between atoms: _259  and  _260
REMARK  111  A    between atoms: _259  and  _262
REMARK  112  A    between atoms: _262  and  _263
REMARK  113  A    between atoms: _266  and  _268
REMARK  114  A    between atoms: _268  and  _269
REMARK  115  A    between atoms: _268  and  _271
REMARK  116  A    between atoms: _271  and  _272
REMARK  117  A    between atoms: _275  and  _277
REMARK  118  A    between atoms: _277  and  _278
REMARK  119  A    between atoms: _277  and  _280
REMARK  120  A    between atoms: _280  and  _281
REMARK  121  A    between atoms: _284  and  _286
REMARK  122  A    between atoms: _286  and  _287
REMARK  123  A    between atoms: _286  and  _289
REMARK  124  A    between atoms: _289  and  _290
REMARK  125  A    between atoms: _290  and  _291
REMARK  126  A    between atoms: _291  and  _292
REMARK  127  A    between atoms: _301  and  _303
REMARK  128  A    between atoms: _303  and  _304
REMARK  129  A    between atoms: _303  and  _306
REMARK  130  A    between atoms: _306  and  _307
REMARK  131  A    between atoms: _317  and  _319
REMARK  132  A    between atoms: _319  and  _320
REMARK  133  A    between atoms: _319  and  _322
REMARK  134  A    between atoms: _325  and  _327
REMARK  135  A    between atoms: _327  and  _328
REMARK  136  A    between atoms: _327  and  _330
REMARK  137  A    between atoms: _333  and  _335
REMARK  138  A    between atoms: _335  and  _336
REMARK  139  A    between atoms: _335  and  _338
REMARK  140  A    between atoms: _338  and  _339
REMARK  141  A    between atoms: _342  and  _344
REMARK  142  A    between atoms: _344  and  _345
REMARK  143  A    between atoms: _344  and  _347
REMARK  144  A    between atoms: _349  and  _351
REMARK  145  A    between atoms: _351  and  _352
REMARK  146  A    between atoms: _355  and  _357
REMARK  147  A    between atoms: _357  and  _358
REMARK  148  A    between atoms: _357  and  _360
REMARK  149  A    between atoms: _360  and  _361
REMARK  150  A    between atoms: _361  and  _362
REMARK  151  A    between atoms: _362  and  _363
REMARK  152  A    between atoms: _372  and  _374
REMARK  153  A    between atoms: _374  and  _375
REMARK  154  A    between atoms: _378  and  _380
REMARK  155  A    between atoms: _380  and  _381
REMARK  156  A    between atoms: _380  and  _383
REMARK  157  A    between atoms: _383  and  _384
REMARK  158  A    between atoms: _389  and  _391
REMARK  159  A    between atoms: _391  and  _392
REMARK  160  A    between atoms: _391  and  _394
REMARK  161  A    between atoms: _394  and  _395
REMARK  162  A    between atoms: _395  and  _396
REMARK  163  A    between atoms: _396  and  _397
REMARK  164  A    between atoms: _397  and  _398
REMARK  165  A    between atoms: _402  and  _404
REMARK  166  A    between atoms: _404  and  _405
REMARK  167  A    between atoms: _404  and  _407
REMARK  168  A    between atoms: _407  and  _408
REMARK  169  A    between atoms: _408  and  _409
REMARK  170  A    between atoms: _414  and  _416
REMARK  171  A    between atoms: _416  and  _417
REMARK  172  A    between atoms: _416  and  _419
REMARK  173  A    between atoms: _419  and  _420
REMARK  174  A    between atoms: _423  and  _425
REMARK  175  A    between atoms: _425  and  _426
REMARK  176  A    between atoms: _425  and  _428
REMARK  177  A    between atoms: _428  and  _429
REMARK  178  A    between atoms: _433  and  _434
REMARK  179  A    between atoms: _439  and  _441
REMARK  180  A    between atoms: _441  and  _442
REMARK  181  A    between atoms: _441  and  _444
REMARK  182  A    between atoms: _444  and  _445
REMARK  183  A    between atoms: _447  and  _449
REMARK  184  A    between atoms: _449  and  _450
REMARK  185  A    between atoms: _449  and  _452
REMARK  186  A    between atoms: _454  and  _456
REMARK  187  A    between atoms: _456  and  _457
REMARK  188  A    between atoms: _460  and  _462
REMARK  189  A    between atoms: _462  and  _463
REMARK  190  A    between atoms: _462  and  _465
REMARK  191  A    between atoms: _465  and  _466
REMARK  192  A    between atoms: _469  and  _471
REMARK  193  A    between atoms: _471  and  _472
REMARK  194  A    between atoms: _471  and  _474
REMARK  195  A    between atoms: _474  and  _475
REMARK  196  A    between atoms: _477  and  _479
REMARK  197  A    between atoms: _479  and  _480
REMARK  198  A    between atoms: _482  and  _484
REMARK  199  A    between atoms: _484  and  _485
REMARK  200  A    between atoms: _484  and  _487
REMARK  201  A    between atoms: _487  and  _488
REMARK  202  A    between atoms: _491  and  _493
REMARK  203  A    between atoms: _493  and  _494
REMARK  204  A    between atoms: _493  and  _496
REMARK  205  A    between atoms: _496  and  _497
REMARK  206  A    between atoms: _500  and  _502
REMARK  207  A    between atoms: _502  and  _503
REMARK  208  A    between atoms: _502  and  _505
REMARK  209  A    between atoms: _505  and  _506
REMARK                            x       y       z     vdW  Elec       q    Type
REMARK                         _______ _______ _______ _____ _____    ______ ____
ROOT
ATOM      1  O   HOH     1      -7.106   6.780  49.517  0.00  0.00    +0.000 OA
ENDROOT
TORSDOF 0
REMARK  Name = ../refined-set-2016/4kax/4kax_pocket.pdb
REMARK  209 active torsions:
REMARK  status: ('A' for Active; 'I' for Inactive)
REMARK    1  A    between atoms: _1  and  _3
REMARK    2  A    between atoms: _3  and  _4
REMARK    3  A    between atoms: _3  and  _6
REMARK    4  A    between atoms: _6  and  _7
REMARK    5  A    between atoms: _7  and  _8
REMARK    6  A    between atoms: _10  and  _12
REMARK    7  A    between atoms: _12  and  _13
REMARK    8  A    between atoms: _12  and  _15
REMARK    9  A    between atoms: _15  and  _16
REMARK   10  A    between atoms: _19  and  _21
REMARK   11  A    between atoms: _21  and  _22
REMARK   12  A    between atoms: _24  and  _26
REMARK   13  A    between atoms: _26  and  _27
REMARK   14  A    between atoms: _26  and  _29
REMARK   15  A    between atoms: _29  and  _30
REMARK   16  A    between atoms: _33  and  _35
REMARK   17  A    between atoms: _35  and  _36
REMARK   18  A    between atoms: _35  and  _38
REMARK   19  A    between atoms: _38  and  _39
REMARK   20  A    between atoms: _42  and  _44
REMARK   21  A    between atoms: _44  and  _45
REMARK   22  A    between atoms: _48  and  _50
REMARK   23  A    between atoms: _50  and  _51
REMARK   24  A    between atoms: _54  and  _56
REMARK   25  A    between atoms: _56  and  _57
REMARK   26  A    between atoms: _59  and  _61
REMARK   27  A    between atoms: _61  and  _62
REMARK   28  A    between atoms: _61  and  _64
REMARK   29  A    between atoms: _64  and  _65
REMARK   30  A    between atoms: _65  and  _66
REMARK   31  A    between atoms: _66  and  _67
REMARK   32  A    between atoms: _67  and  _68
REMARK   33  A    between atoms: _72  and  _74
REMARK   34  A    between atoms: _74  and  _75
REMARK   35  A    between atoms: _74  and  _77
REMARK   36  A    between atoms: _77  and  _78
REMARK   37  A    between atoms: _81  and  _83
REMARK   38  A    between atoms: _83  and  _84
REMARK   39  A    between atoms: _83  and  _86
REMARK   40  A    between atoms: _86  and  _87
REMARK   41  A    between atoms: _90  and  _92
REMARK   42  A    between atoms: _92  and  _93
REMARK   43  A    between atoms: _92  and  _95
REMARK   44  A    between atoms: _95  and  _96
REMARK   45  A    between atoms: _99  and  _101
REMARK   46  A    between atoms: _101  and  _102
REMARK   47  A    between atoms: _101  and  _104
REMARK   48  A    between atoms: _104  and  _105
REMARK   49  A    between atoms: _108  and  _110
REMARK   50  A    between atoms: _110  and  _111
REMARK   51  A    between atoms: _110  and  _113
REMARK   52  A    between atoms: _113  and  _114
REMARK   53  A    between atoms: _119  and  _120
REMARK   54  A    between atoms: _122  and  _124
REMARK   55  A    between atoms: _124  and  _125
REMARK   56  A    between atoms: _124  and  _127
REMARK   57  A    between atoms: _127  and  _128
REMARK   58  A    between atoms: _128  and  _129
REMARK   59  A    between atoms: _129  and  _130
REMARK   60  A    between atoms: _130  and  _131
REMARK   61  A    between atoms: _135  and  _137
REMARK   62  A    between atoms: _137  and  _138
REMARK   63  A    between atoms: _137  and  _140
REMARK   64  A    between atoms: _140  and  _141
REMARK   65  A    between atoms: _143  and  _145
REMARK   66  A    between atoms: _145  and  _146
REMARK   67  A    between atoms: _145  and  _148
REMARK   68  A    between atoms: _151  and  _153
REMARK   69  A    between atoms: _153  and  _154
REMARK   70  A    between atoms: _153  and  _156
REMARK   71  A    between atoms: _156  and  _157
REMARK   72  A    between atoms: _160  and  _162
REMARK   73  A    between atoms: _162  and  _163
REMARK   74  A    between atoms: _162  and  _165
REMARK   75  A    between atoms: _165  and  _166
REMARK   76  A    between atoms: _169  and  _171
REMARK   77  A    between atoms: _171  and  _172
REMARK   78  A    between atoms: _171  and  _174
REMARK   79  A    between atoms: _174  and  _175
REMARK   80  A    between atoms: _179  and  _180
REMARK   81  A    between atoms: _185  and  _187
REMARK   82  A    between atoms: _187  and  _188
REMARK   83  A    between atoms: _187  and  _190
REMARK   84  A    between atoms: _190  and  _191
REMARK   85  A    between atoms: _194  and  _196
REMARK   86  A    between atoms: _196  and  _197
REMARK   87  A    between atoms: _196  and  _199
REMARK   88  A    between atoms: _202  and  _204
REMARK   89  A    between atoms: _204  and  _205
REMARK   90  A    between atoms: _207  and  _209
REMARK   91  A    between atoms: _209  and  _210
REMARK   92  A    between atoms: _209  and  _212
REMARK   93  A    between atoms: _212  and  _213
REMARK   94  A    between atoms: _219  and  _221
REMARK   95  A    between atoms: _221  and  _222
REMARK   96  A    between atoms: _221  and  _224
REMARK   97  A    between atoms: _224  and  _225
REMARK   98  A    between atoms: _230  and  _232
REMARK   99  A    between atoms: _232  and  _233
REMARK  100  A    between atoms: _232  and  _235
REMARK  101  A    between atoms: _235  and  _236
REMARK  102  A    between atoms: _239  and  _241
REMARK  103  A    between atoms: _241  and  _242
REMARK  104  A    between atoms: _241  and  _244
REMARK  105  A    between atoms: _247  and  _249
REMARK  106  A    between atoms: _249  and  _250
REMARK  107  A    between atoms: _252  and  _254
REMARK  108  A    between atoms: _254  and  _255
REMARK  109  A    between atoms: _257  and  _259
REMARK  110  A    between atoms: _259  and  _260
REMARK  111  A    between atoms: _259  and  _262
REMARK  112  A    between atoms: _262  and  _263
REMARK  113  A    between atoms: _266  and  _268
REMARK  114  A    between atoms: _268  and  _269
REMARK  115  A    between atoms: _268  and  _271
REMARK  116  A    between atoms: _271  and  _272
REMARK  117  A    between atoms: _275  and  _277
REMARK  118  A    between atoms: _277  and  _278
REMARK  119  A    between atoms: _277  and  _280
REMARK  120  A    between atoms: _280  and  _281
REMARK  121  A    between atoms: _284  and  _286
REMARK  122  A    between atoms: _286  and  _287
REMARK  123  A    between atoms: _286  and  _289
REMARK  124  A    between atoms: _289  and  _290
REMARK  125  A    between atoms: _290  and  _291
REMARK  126  A    between atoms: _291  and  _292
REMARK  127  A    between atoms: _301  and  _303
REMARK  128  A    between atoms: _303  and  _304
REMARK  129  A    between atoms: _303  and  _306
REMARK  130  A    between atoms: _306  and  _307
REMARK  131  A    between atoms: _317  and  _319
REMARK  132  A    between atoms: _319  and  _320
REMARK  133  A    between atoms: _319  and  _322
REMARK  134  A    between atoms: _325  and  _327
REMARK  135  A    between atoms: _327  and  _328
REMARK  136  A    between atoms: _327  and  _330
REMARK  137  A    between atoms: _333  and  _335
REMARK  138  A    between atoms: _335  and  _336
REMARK  139  A    between atoms: _335  and  _338
REMARK  140  A    between atoms: _338  and  _339
REMARK  141  A    between atoms: _342  and  _344
REMARK  142  A    between atoms: _344  and  _345
REMARK  143  A    between atoms: _344  and  _347
REMARK  144  A    between atoms: _349  and  _351
REMARK  145  A    between atoms: _351  and  _352
REMARK  146  A    between atoms: _355  and  _357
REMARK  147  A    between atoms: _357  and  _358
REMARK  148  A    between atoms: _357  and  _360
REMARK  149  A    between atoms: _360  and  _361
REMARK  150  A    between atoms: _361  and  _362
REMARK  151  A    between atoms: _362  and  _363
REMARK  152  A    between atoms: _372  and  _374
REMARK  153  A    between atoms: _374  and  _375
REMARK  154  A    between atoms: _378  and  _380
REMARK  155  A    between atoms: _380  and  _381
REMARK  156  A    between atoms: _380  and  _383
REMARK  157  A    between atoms: _383  and  _384
REMARK  158  A    between atoms: _389  and  _391
REMARK  159  A    between atoms: _391  and  _392
REMARK  160  A    between atoms: _391  and  _394
REMARK  161  A    between atoms: _394  and  _395
REMARK  162  A    between atoms: _395  and  _396
REMARK  163  A    between atoms: _396  and  _397
REMARK  164  A    between atoms: _397  and  _398
REMARK  165  A    between atoms: _402  and  _404
REMARK  166  A    between atoms: _404  and  _405
REMARK  167  A    between atoms: _404  and  _407
REMARK  168  A    between atoms: _407  and  _408
REMARK  169  A    between atoms: _408  and  _409
REMARK  170  A    between atoms: _414  and  _416
REMARK  171  A    between atoms: _416  and  _417
REMARK  172  A    between atoms: _416  and  _419
REMARK  173  A    between atoms: _419  and  _420
REMARK  174  A    between atoms: _423  and  _425
REMARK  175  A    between atoms: _425  and  _426
REMARK  176  A    between atoms: _425  and  _428
REMARK  177  A    between atoms: _428  and  _429
REMARK  178  A    between atoms: _433  and  _434
REMARK  179  A    between atoms: _439  and  _441
REMARK  180  A    between atoms: _441  and  _442
REMARK  181  A    between atoms: _441  and  _444
REMARK  182  A    between atoms: _444  and  _445
REMARK  183  A    between atoms: _447  and  _449
REMARK  184  A    between atoms: _449  and  _450
REMARK  185  A    between atoms: _449  and  _452
REMARK  186  A    between atoms: _454  and  _456
REMARK  187  A    between atoms: _456  and  _457
REMARK  188  A    between atoms: _460  and  _462
REMARK  189  A    between atoms: _462  and  _463
REMARK  190  A    between atoms: _462  and  _465
REMARK  191  A    between atoms: _465  and  _466
REMARK  192  A    between atoms: _469  and  _471
REMARK  193  A    between atoms: _471  and  _472
REMARK  194  A    between atoms: _471  and  _474
REMARK  195  A    between atoms: _474  and  _475
REMARK  196  A    between atoms: _477  and  _479
REMARK  197  A    between atoms: _479  and  _480
REMARK  198  A    between atoms: _482  and  _484
REMARK  199  A    between atoms: _484  and  _485
REMARK  200  A    between atoms: _484  and  _487
REMARK  201  A    between atoms: _487  and  _488
REMARK  202  A    between atoms: _491  and  _493
REMARK  203  A    between atoms: _493  and  _494
REMARK  204  A    between atoms: _493  and  _496
REMARK  205  A    between atoms: _496  and  _497
REMARK  206  A    between atoms: _500  and  _502
REMARK  207  A    between atoms: _502  and  _503
REMARK  208  A    between atoms: _502  and  _505
REMARK  209  A    between atoms: _505  and  _506
REMARK                            x       y       z     vdW  Elec       q    Type
REMARK                         _______ _______ _______ _____ _____    ______ ____
ROOT
ATOM      1  O   HOH     1       1.004   5.871  62.950  0.00  0.00    +0.000 OA
ENDROOT
TORSDOF 0
REMARK  Name = ../refined-set-2016/4kax/4kax_pocket.pdb
REMARK  209 active torsions:
REMARK  status: ('A' for Active; 'I' for Inactive)
REMARK    1  A    between atoms: _1  and  _3
REMARK    2  A    between atoms: _3  and  _4
REMARK    3  A    between atoms: _3  and  _6
REMARK    4  A    between atoms: _6  and  _7
REMARK    5  A    between atoms: _7  and  _8
REMARK    6  A    between atoms: _10  and  _12
REMARK    7  A    between atoms: _12  and  _13
REMARK    8  A    between atoms: _12  and  _15
REMARK    9  A    between atoms: _15  and  _16
REMARK   10  A    between atoms: _19  and  _21
REMARK   11  A    between atoms: _21  and  _22
REMARK   12  A    between atoms: _24  and  _26
REMARK   13  A    between atoms: _26  and  _27
REMARK   14  A    between atoms: _26  and  _29
REMARK   15  A    between atoms: _29  and  _30
REMARK   16  A    between atoms: _33  and  _35
REMARK   17  A    between atoms: _35  and  _36
REMARK   18  A    between atoms: _35  and  _38
REMARK   19  A    between atoms: _38  and  _39
REMARK   20  A    between atoms: _42  and  _44
REMARK   21  A    between atoms: _44  and  _45
REMARK   22  A    between atoms: _48  and  _50
REMARK   23  A    between atoms: _50  and  _51
REMARK   24  A    between atoms: _54  and  _56
REMARK   25  A    between atoms: _56  and  _57
REMARK   26  A    between atoms: _59  and  _61
REMARK   27  A    between atoms: _61  and  _62
REMARK   28  A    between atoms: _61  and  _64
REMARK   29  A    between atoms: _64  and  _65
REMARK   30  A    between atoms: _65  and  _66
REMARK   31  A    between atoms: _66  and  _67
REMARK   32  A    between atoms: _67  and  _68
REMARK   33  A    between atoms: _72  and  _74
REMARK   34  A    between atoms: _74  and  _75
REMARK   35  A    between atoms: _74  and  _77
REMARK   36  A    between atoms: _77  and  _78
REMARK   37  A    between atoms: _81  and  _83
REMARK   38  A    between atoms: _83  and  _84
REMARK   39  A    between atoms: _83  and  _86
REMARK   40  A    between atoms: _86  and  _87
REMARK   41  A    between atoms: _90  and  _92
REMARK   42  A    between atoms: _92  and  _93
REMARK   43  A    between atoms: _92  and  _95
REMARK   44  A    between atoms: _95  and  _96
REMARK   45  A    between atoms: _99  and  _101
REMARK   46  A    between atoms: _101  and  _102
REMARK   47  A    between atoms: _101  and  _104
REMARK   48  A    between atoms: _104  and  _105
REMARK   49  A    between atoms: _108  and  _110
REMARK   50  A    between atoms: _110  and  _111
REMARK   51  A    between atoms: _110  and  _113
REMARK   52  A    between atoms: _113  and  _114
REMARK   53  A    between atoms: _119  and  _120
REMARK   54  A    between atoms: _122  and  _124
REMARK   55  A    between atoms: _124  and  _125
REMARK   56  A    between atoms: _124  and  _127
REMARK   57  A    between atoms: _127  and  _128
REMARK   58  A    between atoms: _128  and  _129
REMARK   59  A    between atoms: _129  and  _130
REMARK   60  A    between atoms: _130  and  _131
REMARK   61  A    between atoms: _135  and  _137
REMARK   62  A    between atoms: _137  and  _138
REMARK   63  A    between atoms: _137  and  _140
REMARK   64  A    between atoms: _140  and  _141
REMARK   65  A    between atoms: _143  and  _145
REMARK   66  A    between atoms: _145  and  _146
REMARK   67  A    between atoms: _145  and  _148
REMARK   68  A    between atoms: _151  and  _153
REMARK   69  A    between atoms: _153  and  _154
REMARK   70  A    between atoms: _153  and  _156
REMARK   71  A    between atoms: _156  and  _157
REMARK   72  A    between atoms: _160  and  _162
REMARK   73  A    between atoms: _162  and  _163
REMARK   74  A    between atoms: _162  and  _165
REMARK   75  A    between atoms: _165  and  _166
REMARK   76  A    between atoms: _169  and  _171
REMARK   77  A    between atoms: _171  and  _172
REMARK   78  A    between atoms: _171  and  _174
REMARK   79  A    between atoms: _174  and  _175
REMARK   80  A    between atoms: _179  and  _180
REMARK   81  A    between atoms: _185  and  _187
REMARK   82  A    between atoms: _187  and  _188
REMARK   83  A    between atoms: _187  and  _190
REMARK   84  A    between atoms: _190  and  _191
REMARK   85  A    between atoms: _194  and  _196
REMARK   86  A    between atoms: _196  and  _197
REMARK   87  A    between atoms: _196  and  _199
REMARK   88  A    between atoms: _202  and  _204
REMARK   89  A    between atoms: _204  and  _205
REMARK   90  A    between atoms: _207  and  _209
REMARK   91  A    between atoms: _209  and  _210
REMARK   92  A    between atoms: _209  and  _212
REMARK   93  A    between atoms: _212  and  _213
REMARK   94  A    between atoms: _219  and  _221
REMARK   95  A    between atoms: _221  and  _222
REMARK   96  A    between atoms: _221  and  _224
REMARK   97  A    between atoms: _224  and  _225
REMARK   98  A    between atoms: _230  and  _232
REMARK   99  A    between atoms: _232  and  _233
REMARK  100  A    between atoms: _232  and  _235
REMARK  101  A    between atoms: _235  and  _236
REMARK  102  A    between atoms: _239  and  _241
REMARK  103  A    between atoms: _241  and  _242
REMARK  104  A    between atoms: _241  and  _244
REMARK  105  A    between atoms: _247  and  _249
REMARK  106  A    between atoms: _249  and  _250
REMARK  107  A    between atoms: _252  and  _254
REMARK  108  A    between atoms: _254  and  _255
REMARK  109  A    between atoms: _257  and  _259
REMARK  110  A    between atoms: _259  and  _260
REMARK  111  A    between atoms: _259  and  _262
REMARK  112  A    between atoms: _262  and  _263
REMARK  113  A    between atoms: _266  and  _268
REMARK  114  A    between atoms: _268  and  _269
REMARK  115  A    between atoms: _268  and  _271
REMARK  116  A    between atoms: _271  and  _272
REMARK  117  A    between atoms: _275  and  _277
REMARK  118  A    between atoms: _277  and  _278
REMARK  119  A    between atoms: _277  and  _280
REMARK  120  A    between atoms: _280  and  _281
REMARK  121  A    between atoms: _284  and  _286
REMARK  122  A    between atoms: _286  and  _287
REMARK  123  A    between atoms: _286  and  _289
REMARK  124  A    between atoms: _289  and  _290
REMARK  125  A    between atoms: _290  and  _291
REMARK  126  A    between atoms: _291  and  _292
REMARK  127  A    between atoms: _301  and  _303
REMARK  128  A    between atoms: _303  and  _304
REMARK  129  A    between atoms: _303  and  _306
REMARK  130  A    between atoms: _306  and  _307
REMARK  131  A    between atoms: _317  and  _319
REMARK  132  A    between atoms: _319  and  _320
REMARK  133  A    between atoms: _319  and  _322
REMARK  134  A    between atoms: _325  and  _327
REMARK  135  A    between atoms: _327  and  _328
REMARK  136  A    between atoms: _327  and  _330
REMARK  137  A    between atoms: _333  and  _335
REMARK  138  A    between atoms: _335  and  _336
REMARK  139  A    between atoms: _335  and  _338
REMARK  140  A    between atoms: _338  and  _339
REMARK  141  A    between atoms: _342  and  _344
REMARK  142  A    between atoms: _344  and  _345
REMARK  143  A    between atoms: _344  and  _347
REMARK  144  A    between atoms: _349  and  _351
REMARK  145  A    between atoms: _351  and  _352
REMARK  146  A    between atoms: _355  and  _357
REMARK  147  A    between atoms: _357  and  _358
REMARK  148  A    between atoms: _357  and  _360
REMARK  149  A    between atoms: _360  and  _361
REMARK  150  A    between atoms: _361  and  _362
REMARK  151  A    between atoms: _362  and  _363
REMARK  152  A    between atoms: _372  and  _374
REMARK  153  A    between atoms: _374  and  _375
REMARK  154  A    between atoms: _378  and  _380
REMARK  155  A    between atoms: _380  and  _381
REMARK  156  A    between atoms: _380  and  _383
REMARK  157  A    between atoms: _383  and  _384
REMARK  158  A    between atoms: _389  and  _391
REMARK  159  A    between atoms: _391  and  _392
REMARK  160  A    between atoms: _391  and  _394
REMARK  161  A    between atoms: _394  and  _395
REMARK  162  A    between atoms: _395  and  _396
REMARK  163  A    between atoms: _396  and  _397
REMARK  164  A    between atoms: _397  and  _398
REMARK  165  A    between atoms: _402  and  _404
REMARK  166  A    between atoms: _404  and  _405
REMARK  167  A    between atoms: _404  and  _407
REMARK  168  A    between atoms: _407  and  _408
REMARK  169  A    between atoms: _408  and  _409
REMARK  170  A    between atoms: _414  and  _416
REMARK  171  A    between atoms: _416  and  _417
REMARK  172  A    between atoms: _416  and  _419
REMARK  173  A    between atoms: _419  and  _420
REMARK  174  A    between atoms: _423  and  _425
REMARK  175  A    between atoms: _425  and  _426
REMARK  176  A    between atoms: _425  and  _428
REMARK  177  A    between atoms: _428  and  _429
REMARK  178  A    between atoms: _433  and  _434
REMARK  179  A    between atoms: _439  and  _441
REMARK  180  A    between atoms: _441  and  _442
REMARK  181  A    between atoms: _441  and  _444
REMARK  182  A    between atoms: _444  and  _445
REMARK  183  A    between atoms: _447  and  _449
REMARK  184  A    between atoms: _449  and  _450
REMARK  185  A    between atoms: _449  and  _452
REMARK  186  A    between atoms: _454  and  _456
REMARK  187  A    between atoms: _456  and  _457
REMARK  188  A    between atoms: _460  and  _462
REMARK  189  A    between atoms: _462  and  _463
REMARK  190  A    between atoms: _462  and  _465
REMARK  191  A    between atoms: _465  and  _466
REMARK  192  A    between atoms: _469  and  _471
REMARK  193  A    between atoms: _471  and  _472
REMARK  194  A    between atoms: _471  and  _474
REMARK  195  A    between atoms: _474  and  _475
REMARK  196  A    between atoms: _477  and  _479
REMARK  197  A    between atoms: _479  and  _480
REMARK  198  A    between atoms: _482  and  _484
REMARK  199  A    between atoms: _484  and  _485
REMARK  200  A    between atoms: _484  and  _487
REMARK  201  A    between atoms: _487  and  _488
REMARK  202  A    between atoms: _491  and  _493
REMARK  203  A    between atoms: _493  and  _494
REMARK  204  A    between atoms: _493  and  _496
REMARK  205  A    between atoms: _496  and  _497
REMARK  206  A    between atoms: _500  and  _502
REMARK  207  A    between atoms: _502  and  _503
REMARK  208  A    between atoms: _502  and  _505
REMARK  209  A    between atoms: _505  and  _506
REMARK                            x       y       z     vdW  Elec       q    Type
REMARK                         _______ _______ _______ _____ _____    ______ ____
ROOT
ATOM      1  O   HOH     1      -9.065   9.947  57.001  0.00  0.00    +0.000 OA
ENDROOT
TORSDOF 0
REMARK  Name = ../refined-set-2016/4kax/4kax_pocket.pdb
REMARK  209 active torsions:
REMARK  status: ('A' for Active; 'I' for Inactive)
REMARK    1  A    between atoms: _1  and  _3
REMARK    2  A    between atoms: _3  and  _4
REMARK    3  A    between atoms: _3  and  _6
REMARK    4  A    between atoms: _6  and  _7
REMARK    5  A    between atoms: _7  and  _8
REMARK    6  A    between atoms: _10  and  _12
REMARK    7  A    between atoms: _12  and  _13
REMARK    8  A    between atoms: _12  and  _15
REMARK    9  A    between atoms: _15  and  _16
REMARK   10  A    between atoms: _19  and  _21
REMARK   11  A    between atoms: _21  and  _22
REMARK   12  A    between atoms: _24  and  _26
REMARK   13  A    between atoms: _26  and  _27
REMARK   14  A    between atoms: _26  and  _29
REMARK   15  A    between atoms: _29  and  _30
REMARK   16  A    between atoms: _33  and  _35
REMARK   17  A    between atoms: _35  and  _36
REMARK   18  A    between atoms: _35  and  _38
REMARK   19  A    between atoms: _38  and  _39
REMARK   20  A    between atoms: _42  and  _44
REMARK   21  A    between atoms: _44  and  _45
REMARK   22  A    between atoms: _48  and  _50
REMARK   23  A    between atoms: _50  and  _51
REMARK   24  A    between atoms: _54  and  _56
REMARK   25  A    between atoms: _56  and  _57
REMARK   26  A    between atoms: _59  and  _61
REMARK   27  A    between atoms: _61  and  _62
REMARK   28  A    between atoms: _61  and  _64
REMARK   29  A    between atoms: _64  and  _65
REMARK   30  A    between atoms: _65  and  _66
REMARK   31  A    between atoms: _66  and  _67
REMARK   32  A    between atoms: _67  and  _68
REMARK   33  A    between atoms: _72  and  _74
REMARK   34  A    between atoms: _74  and  _75
REMARK   35  A    between atoms: _74  and  _77
REMARK   36  A    between atoms: _77  and  _78
REMARK   37  A    between atoms: _81  and  _83
REMARK   38  A    between atoms: _83  and  _84
REMARK   39  A    between atoms: _83  and  _86
REMARK   40  A    between atoms: _86  and  _87
REMARK   41  A    between atoms: _90  and  _92
REMARK   42  A    between atoms: _92  and  _93
REMARK   43  A    between atoms: _92  and  _95
REMARK   44  A    between atoms: _95  and  _96
REMARK   45  A    between atoms: _99  and  _101
REMARK   46  A    between atoms: _101  and  _102
REMARK   47  A    between atoms: _101  and  _104
REMARK   48  A    between atoms: _104  and  _105
REMARK   49  A    between atoms: _108  and  _110
REMARK   50  A    between atoms: _110  and  _111
REMARK   51  A    between atoms: _110  and  _113
REMARK   52  A    between atoms: _113  and  _114
REMARK   53  A    between atoms: _119  and  _120
REMARK   54  A    between atoms: _122  and  _124
REMARK   55  A    between atoms: _124  and  _125
REMARK   56  A    between atoms: _124  and  _127
REMARK   57  A    between atoms: _127  and  _128
REMARK   58  A    between atoms: _128  and  _129
REMARK   59  A    between atoms: _129  and  _130
REMARK   60  A    between atoms: _130  and  _131
REMARK   61  A    between atoms: _135  and  _137
REMARK   62  A    between atoms: _137  and  _138
REMARK   63  A    between atoms: _137  and  _140
REMARK   64  A    between atoms: _140  and  _141
REMARK   65  A    between atoms: _143  and  _145
REMARK   66  A    between atoms: _145  and  _146
REMARK   67  A    between atoms: _145  and  _148
REMARK   68  A    between atoms: _151  and  _153
REMARK   69  A    between atoms: _153  and  _154
REMARK   70  A    between atoms: _153  and  _156
REMARK   71  A    between atoms: _156  and  _157
REMARK   72  A    between atoms: _160  and  _162
REMARK   73  A    between atoms: _162  and  _163
REMARK   74  A    between atoms: _162  and  _165
REMARK   75  A    between atoms: _165  and  _166
REMARK   76  A    between atoms: _169  and  _171
REMARK   77  A    between atoms: _171  and  _172
REMARK   78  A    between atoms: _171  and  _174
REMARK   79  A    between atoms: _174  and  _175
REMARK   80  A    between atoms: _179  and  _180
REMARK   81  A    between atoms: _185  and  _187
REMARK   82  A    between atoms: _187  and  _188
REMARK   83  A    between atoms: _187  and  _190
REMARK   84  A    between atoms: _190  and  _191
REMARK   85  A    between atoms: _194  and  _196
REMARK   86  A    between atoms: _196  and  _197
REMARK   87  A    between atoms: _196  and  _199
REMARK   88  A    between atoms: _202  and  _204
REMARK   89  A    between atoms: _204  and  _205
REMARK   90  A    between atoms: _207  and  _209
REMARK   91  A    between atoms: _209  and  _210
REMARK   92  A    between atoms: _209  and  _212
REMARK   93  A    between atoms: _212  and  _213
REMARK   94  A    between atoms: _219  and  _221
REMARK   95  A    between atoms: _221  and  _222
REMARK   96  A    between atoms: _221  and  _224
REMARK   97  A    between atoms: _224  and  _225
REMARK   98  A    between atoms: _230  and  _232
REMARK   99  A    between atoms: _232  and  _233
REMARK  100  A    between atoms: _232  and  _235
REMARK  101  A    between atoms: _235  and  _236
REMARK  102  A    between atoms: _239  and  _241
REMARK  103  A    between atoms: _241  and  _242
REMARK  104  A    between atoms: _241  and  _244
REMARK  105  A    between atoms: _247  and  _249
REMARK  106  A    between atoms: _249  and  _250
REMARK  107  A    between atoms: _252  and  _254
REMARK  108  A    between atoms: _254  and  _255
REMARK  109  A    between atoms: _257  and  _259
REMARK  110  A    between atoms: _259  and  _260
REMARK  111  A    between atoms: _259  and  _262
REMARK  112  A    between atoms: _262  and  _263
REMARK  113  A    between atoms: _266  and  _268
REMARK  114  A    between atoms: _268  and  _269
REMARK  115  A    between atoms: _268  and  _271
REMARK  116  A    between atoms: _271  and  _272
REMARK  117  A    between atoms: _275  and  _277
REMARK  118  A    between atoms: _277  and  _278
REMARK  119  A    between atoms: _277  and  _280
REMARK  120  A    between atoms: _280  and  _281
REMARK  121  A    between atoms: _284  and  _286
REMARK  122  A    between atoms: _286  and  _287
REMARK  123  A    between atoms: _286  and  _289
REMARK  124  A    between atoms: _289  and  _290
REMARK  125  A    between atoms: _290  and  _291
REMARK  126  A    between atoms: _291  and  _292
REMARK  127  A    between atoms: _301  and  _303
REMARK  128  A    between atoms: _303  and  _304
REMARK  129  A    between atoms: _303  and  _306
REMARK  130  A    between atoms: _306  and  _307
REMARK  131  A    between atoms: _317  and  _319
REMARK  132  A    between atoms: _319  and  _320
REMARK  133  A    between atoms: _319  and  _322
REMARK  134  A    between atoms: _325  and  _327
REMARK  135  A    between atoms: _327  and  _328
REMARK  136  A    between atoms: _327  and  _330
REMARK  137  A    between atoms: _333  and  _335
REMARK  138  A    between atoms: _335  and  _336
REMARK  139  A    between atoms: _335  and  _338
REMARK  140  A    between atoms: _338  and  _339
REMARK  141  A    between atoms: _342  and  _344
REMARK  142  A    between atoms: _344  and  _345
REMARK  143  A    between atoms: _344  and  _347
REMARK  144  A    between atoms: _349  and  _351
REMARK  145  A    between atoms: _351  and  _352
REMARK  146  A    between atoms: _355  and  _357
REMARK  147  A    between atoms: _357  and  _358
REMARK  148  A    between atoms: _357  and  _360
REMARK  149  A    between atoms: _360  and  _361
REMARK  150  A    between atoms: _361  and  _362
REMARK  151  A    between atoms: _362  and  _363
REMARK  152  A    between atoms: _372  and  _374
REMARK  153  A    between atoms: _374  and  _375
REMARK  154  A    between atoms: _378  and  _380
REMARK  155  A    between atoms: _380  and  _381
REMARK  156  A    between atoms: _380  and  _383
REMARK  157  A    between atoms: _383  and  _384
REMARK  158  A    between atoms: _389  and  _391
REMARK  159  A    between atoms: _391  and  _392
REMARK  160  A    between atoms: _391  and  _394
REMARK  161  A    between atoms: _394  and  _395
REMARK  162  A    between atoms: _395  and  _396
REMARK  163  A    between atoms: _396  and  _397
REMARK  164  A    between atoms: _397  and  _398
REMARK  165  A    between atoms: _402  and  _404
REMARK  166  A    between atoms: _404  and  _405
REMARK  167  A    between atoms: _404  and  _407
REMARK  168  A    between atoms: _407  and  _408
REMARK  169  A    between atoms: _408  and  _409
REMARK  170  A    between atoms: _414  and  _416
REMARK  171  A    between atoms: _416  and  _417
REMARK  172  A    between atoms: _416  and  _419
REMARK  173  A    between atoms: _419  and  _420
REMARK  174  A    between atoms: _423  and  _425
REMARK  175  A    between atoms: _425  and  _426
REMARK  176  A    between atoms: _425  and  _428
REMARK  177  A    between atoms: _428  and  _429
REMARK  178  A    between atoms: _433  and  _434
REMARK  179  A    between atoms: _439  and  _441
REMARK  180  A    between atoms: _441  and  _442
REMARK  181  A    between atoms: _441  and  _444
REMARK  182  A    between atoms: _444  and  _445
REMARK  183  A    between atoms: _447  and  _449
REMARK  184  A    between atoms: _449  and  _450
REMARK  185  A    between atoms: _449  and  _452
REMARK  186  A    between atoms: _454  and  _456
REMARK  187  A    between atoms: _456  and  _457
REMARK  188  A    between atoms: _460  and  _462
REMARK  189  A    between atoms: _462  and  _463
REMARK  190  A    between atoms: _462  and  _465
REMARK  191  A    between atoms: _465  and  _466
REMARK  192  A    between atoms: _469  and  _471
REMARK  193  A    between atoms: _471  and  _472
REMARK  194  A    between atoms: _471  and  _474
REMARK  195  A    between atoms: _474  and  _475
REMARK  196  A    between atoms: _477  and  _479
REMARK  197  A    between atoms: _479  and  _480
REMARK  198  A    between atoms: _482  and  _484
REMARK  199  A    between atoms: _484  and  _485
REMARK  200  A    between atoms: _484  and  _487
REMARK  201  A    between atoms: _487  and  _488
REMARK  202  A    between atoms: _491  and  _493
REMARK  203  A    between atoms: _493  and  _494
REMARK  204  A    between atoms: _493  and  _496
REMARK  205  A    between atoms: _496  and  _497
REMARK  206  A    between atoms: _500  and  _502
REMARK  207  A    between atoms: _502  and  _503
REMARK  208  A    between atoms: _502  and  _505
REMARK  209  A    between atoms: _505  and  _506
REMARK                            x       y       z     vdW  Elec       q    Type
REMARK                         _______ _______ _______ _____ _____    ______ ____
ROOT
ATOM      1  O   HOH     1      -2.009   9.679  60.682  0.00  0.00    +0.000 OA
ENDROOT
TORSDOF 0
REMARK  Name = ../refined-set-2016/4kax/4kax_pocket.pdb
REMARK  209 active torsions:
REMARK  status: ('A' for Active; 'I' for Inactive)
REMARK    1  A    between atoms: _1  and  _3
REMARK    2  A    between atoms: _3  and  _4
REMARK    3  A    between atoms: _3  and  _6
REMARK    4  A    between atoms: _6  and  _7
REMARK    5  A    between atoms: _7  and  _8
REMARK    6  A    between atoms: _10  and  _12
REMARK    7  A    between atoms: _12  and  _13
REMARK    8  A    between atoms: _12  and  _15
REMARK    9  A    between atoms: _15  and  _16
REMARK   10  A    between atoms: _19  and  _21
REMARK   11  A    between atoms: _21  and  _22
REMARK   12  A    between atoms: _24  and  _26
REMARK   13  A    between atoms: _26  and  _27
REMARK   14  A    between atoms: _26  and  _29
REMARK   15  A    between atoms: _29  and  _30
REMARK   16  A    between atoms: _33  and  _35
REMARK   17  A    between atoms: _35  and  _36
REMARK   18  A    between atoms: _35  and  _38
REMARK   19  A    between atoms: _38  and  _39
REMARK   20  A    between atoms: _42  and  _44
REMARK   21  A    between atoms: _44  and  _45
REMARK   22  A    between atoms: _48  and  _50
REMARK   23  A    between atoms: _50  and  _51
REMARK   24  A    between atoms: _54  and  _56
REMARK   25  A    between atoms: _56  and  _57
REMARK   26  A    between atoms: _59  and  _61
REMARK   27  A    between atoms: _61  and  _62
REMARK   28  A    between atoms: _61  and  _64
REMARK   29  A    between atoms: _64  and  _65
REMARK   30  A    between atoms: _65  and  _66
REMARK   31  A    between atoms: _66  and  _67
REMARK   32  A    between atoms: _67  and  _68
REMARK   33  A    between atoms: _72  and  _74
REMARK   34  A    between atoms: _74  and  _75
REMARK   35  A    between atoms: _74  and  _77
REMARK   36  A    between atoms: _77  and  _78
REMARK   37  A    between atoms: _81  and  _83
REMARK   38  A    between atoms: _83  and  _84
REMARK   39  A    between atoms: _83  and  _86
REMARK   40  A    between atoms: _86  and  _87
REMARK   41  A    between atoms: _90  and  _92
REMARK   42  A    between atoms: _92  and  _93
REMARK   43  A    between atoms: _92  and  _95
REMARK   44  A    between atoms: _95  and  _96
REMARK   45  A    between atoms: _99  and  _101
REMARK   46  A    between atoms: _101  and  _102
REMARK   47  A    between atoms: _101  and  _104
REMARK   48  A    between atoms: _104  and  _105
REMARK   49  A    between atoms: _108  and  _110
REMARK   50  A    between atoms: _110  and  _111
REMARK   51  A    between atoms: _110  and  _113
REMARK   52  A    between atoms: _113  and  _114
REMARK   53  A    between atoms: _119  and  _120
REMARK   54  A    between atoms: _122  and  _124
REMARK   55  A    between atoms: _124  and  _125
REMARK   56  A    between atoms: _124  and  _127
REMARK   57  A    between atoms: _127  and  _128
REMARK   58  A    between atoms: _128  and  _129
REMARK   59  A    between atoms: _129  and  _130
REMARK   60  A    between atoms: _130  and  _131
REMARK   61  A    between atoms: _135  and  _137
REMARK   62  A    between atoms: _137  and  _138
REMARK   63  A    between atoms: _137  and  _140
REMARK   64  A    between atoms: _140  and  _141
REMARK   65  A    between atoms: _143  and  _145
REMARK   66  A    between atoms: _145  and  _146
REMARK   67  A    between atoms: _145  and  _148
REMARK   68  A    between atoms: _151  and  _153
REMARK   69  A    between atoms: _153  and  _154
REMARK   70  A    between atoms: _153  and  _156
REMARK   71  A    between atoms: _156  and  _157
REMARK   72  A    between atoms: _160  and  _162
REMARK   73  A    between atoms: _162  and  _163
REMARK   74  A    between atoms: _162  and  _165
REMARK   75  A    between atoms: _165  and  _166
REMARK   76  A    between atoms: _169  and  _171
REMARK   77  A    between atoms: _171  and  _172
REMARK   78  A    between atoms: _171  and  _174
REMARK   79  A    between atoms: _174  and  _175
REMARK   80  A    between atoms: _179  and  _180
REMARK   81  A    between atoms: _185  and  _187
REMARK   82  A    between atoms: _187  and  _188
REMARK   83  A    between atoms: _187  and  _190
REMARK   84  A    between atoms: _190  and  _191
REMARK   85  A    between atoms: _194  and  _196
REMARK   86  A    between atoms: _196  and  _197
REMARK   87  A    between atoms: _196  and  _199
REMARK   88  A    between atoms: _202  and  _204
REMARK   89  A    between atoms: _204  and  _205
REMARK   90  A    between atoms: _207  and  _209
REMARK   91  A    between atoms: _209  and  _210
REMARK   92  A    between atoms: _209  and  _212
REMARK   93  A    between atoms: _212  and  _213
REMARK   94  A    between atoms: _219  and  _221
REMARK   95  A    between atoms: _221  and  _222
REMARK   96  A    between atoms: _221  and  _224
REMARK   97  A    between atoms: _224  and  _225
REMARK   98  A    between atoms: _230  and  _232
REMARK   99  A    between atoms: _232  and  _233
REMARK  100  A    between atoms: _232  and  _235
REMARK  101  A    between atoms: _235  and  _236
REMARK  102  A    between atoms: _239  and  _241
REMARK  103  A    between atoms: _241  and  _242
REMARK  104  A    between atoms: _241  and  _244
REMARK  105  A    between atoms: _247  and  _249
REMARK  106  A    between atoms: _249  and  _250
REMARK  107  A    between atoms: _252  and  _254
REMARK  108  A    between atoms: _254  and  _255
REMARK  109  A    between atoms: _257  and  _259
REMARK  110  A    between atoms: _259  and  _260
REMARK  111  A    between atoms: _259  and  _262
REMARK  112  A    between atoms: _262  and  _263
REMARK  113  A    between atoms: _266  and  _268
REMARK  114  A    between atoms: _268  and  _269
REMARK  115  A    between atoms: _268  and  _271
REMARK  116  A    between atoms: _271  and  _272
REMARK  117  A    between atoms: _275  and  _277
REMARK  118  A    between atoms: _277  and  _278
REMARK  119  A    between atoms: _277  and  _280
REMARK  120  A    between atoms: _280  and  _281
REMARK  121  A    between atoms: _284  and  _286
REMARK  122  A    between atoms: _286  and  _287
REMARK  123  A    between atoms: _286  and  _289
REMARK  124  A    between atoms: _289  and  _290
REMARK  125  A    between atoms: _290  and  _291
REMARK  126  A    between atoms: _291  and  _292
REMARK  127  A    between atoms: _301  and  _303
REMARK  128  A    between atoms: _303  and  _304
REMARK  129  A    between atoms: _303  and  _306
REMARK  130  A    between atoms: _306  and  _307
REMARK  131  A    between atoms: _317  and  _319
REMARK  132  A    between atoms: _319  and  _320
REMARK  133  A    between atoms: _319  and  _322
REMARK  134  A    between atoms: _325  and  _327
REMARK  135  A    between atoms: _327  and  _328
REMARK  136  A    between atoms: _327  and  _330
REMARK  137  A    between atoms: _333  and  _335
REMARK  138  A    between atoms: _335  and  _336
REMARK  139  A    between atoms: _335  and  _338
REMARK  140  A    between atoms: _338  and  _339
REMARK  141  A    between atoms: _342  and  _344
REMARK  142  A    between atoms: _344  and  _345
REMARK  143  A    between atoms: _344  and  _347
REMARK  144  A    between atoms: _349  and  _351
REMARK  145  A    between atoms: _351  and  _352
REMARK  146  A    between atoms: _355  and  _357
REMARK  147  A    between atoms: _357  and  _358
REMARK  148  A    between atoms: _357  and  _360
REMARK  149  A    between atoms: _360  and  _361
REMARK  150  A    between atoms: _361  and  _362
REMARK  151  A    between atoms: _362  and  _363
REMARK  152  A    between atoms: _372  and  _374
REMARK  153  A    between atoms: _374  and  _375
REMARK  154  A    between atoms: _378  and  _380
REMARK  155  A    between atoms: _380  and  _381
REMARK  156  A    between atoms: _380  and  _383
REMARK  157  A    between atoms: _383  and  _384
REMARK  158  A    between atoms: _389  and  _391
REMARK  159  A    between atoms: _391  and  _392
REMARK  160  A    between atoms: _391  and  _394
REMARK  161  A    between atoms: _394  and  _395
REMARK  162  A    between atoms: _395  and  _396
REMARK  163  A    between atoms: _396  and  _397
REMARK  164  A    between atoms: _397  and  _398
REMARK  165  A    between atoms: _402  and  _404
REMARK  166  A    between atoms: _404  and  _405
REMARK  167  A    between atoms: _404  and  _407
REMARK  168  A    between atoms: _407  and  _408
REMARK  169  A    between atoms: _408  and  _409
REMARK  170  A    between atoms: _414  and  _416
REMARK  171  A    between atoms: _416  and  _417
REMARK  172  A    between atoms: _416  and  _419
REMARK  173  A    between atoms: _419  and  _420
REMARK  174  A    between atoms: _423  and  _425
REMARK  175  A    between atoms: _425  and  _426
REMARK  176  A    between atoms: _425  and  _428
REMARK  177  A    between atoms: _428  and  _429
REMARK  178  A    between atoms: _433  and  _434
REMARK  179  A    between atoms: _439  and  _441
REMARK  180  A    between atoms: _441  and  _442
REMARK  181  A    between atoms: _441  and  _444
REMARK  182  A    between atoms: _444  and  _445
REMARK  183  A    between atoms: _447  and  _449
REMARK  184  A    between atoms: _449  and  _450
REMARK  185  A    between atoms: _449  and  _452
REMARK  186  A    between atoms: _454  and  _456
REMARK  187  A    between atoms: _456  and  _457
REMARK  188  A    between atoms: _460  and  _462
REMARK  189  A    between atoms: _462  and  _463
REMARK  190  A    between atoms: _462  and  _465
REMARK  191  A    between atoms: _465  and  _466
REMARK  192  A    between atoms: _469  and  _471
REMARK  193  A    between atoms: _471  and  _472
REMARK  194  A    between atoms: _471  and  _474
REMARK  195  A    between atoms: _474  and  _475
REMARK  196  A    between atoms: _477  and  _479
REMARK  197  A    between atoms: _479  and  _480
REMARK  198  A    between atoms: _482  and  _484
REMARK  199  A    between atoms: _484  and  _485
REMARK  200  A    between atoms: _484  and  _487
REMARK  201  A    between atoms: _487  and  _488
REMARK  202  A    between atoms: _491  and  _493
REMARK  203  A    between atoms: _493  and  _494
REMARK  204  A    between atoms: _493  and  _496
REMARK  205  A    between atoms: _496  and  _497
REMARK  206  A    between atoms: _500  and  _502
REMARK  207  A    between atoms: _502  and  _503
REMARK  208  A    between atoms: _502  and  _505
REMARK  209  A    between atoms: _505  and  _506
REMARK                            x       y       z     vdW  Elec       q    Type
REMARK                         _______ _______ _______ _____ _____    ______ ____
ROOT
ATOM      1  O   HOH     1      -9.060   8.695  50.150  0.00  0.00    +0.000 OA
ENDROOT
TORSDOF 0
REMARK  Name = ../refined-set-2016/4kax/4kax_pocket.pdb
REMARK  209 active torsions:
REMARK  status: ('A' for Active; 'I' for Inactive)
REMARK    1  A    between atoms: _1  and  _3
REMARK    2  A    between atoms: _3  and  _4
REMARK    3  A    between atoms: _3  and  _6
REMARK    4  A    between atoms: _6  and  _7
REMARK    5  A    between atoms: _7  and  _8
REMARK    6  A    between atoms: _10  and  _12
REMARK    7  A    between atoms: _12  and  _13
REMARK    8  A    between atoms: _12  and  _15
REMARK    9  A    between atoms: _15  and  _16
REMARK   10  A    between atoms: _19  and  _21
REMARK   11  A    between atoms: _21  and  _22
REMARK   12  A    between atoms: _24  and  _26
REMARK   13  A    between atoms: _26  and  _27
REMARK   14  A    between atoms: _26  and  _29
REMARK   15  A    between atoms: _29  and  _30
REMARK   16  A    between atoms: _33  and  _35
REMARK   17  A    between atoms: _35  and  _36
REMARK   18  A    between atoms: _35  and  _38
REMARK   19  A    between atoms: _38  and  _39
REMARK   20  A    between atoms: _42  and  _44
REMARK   21  A    between atoms: _44  and  _45
REMARK   22  A    between atoms: _48  and  _50
REMARK   23  A    between atoms: _50  and  _51
REMARK   24  A    between atoms: _54  and  _56
REMARK   25  A    between atoms: _56  and  _57
REMARK   26  A    between atoms: _59  and  _61
REMARK   27  A    between atoms: _61  and  _62
REMARK   28  A    between atoms: _61  and  _64
REMARK   29  A    between atoms: _64  and  _65
REMARK   30  A    between atoms: _65  and  _66
REMARK   31  A    between atoms: _66  and  _67
REMARK   32  A    between atoms: _67  and  _68
REMARK   33  A    between atoms: _72  and  _74
REMARK   34  A    between atoms: _74  and  _75
REMARK   35  A    between atoms: _74  and  _77
REMARK   36  A    between atoms: _77  and  _78
REMARK   37  A    between atoms: _81  and  _83
REMARK   38  A    between atoms: _83  and  _84
REMARK   39  A    between atoms: _83  and  _86
REMARK   40  A    between atoms: _86  and  _87
REMARK   41  A    between atoms: _90  and  _92
REMARK   42  A    between atoms: _92  and  _93
REMARK   43  A    between atoms: _92  and  _95
REMARK   44  A    between atoms: _95  and  _96
REMARK   45  A    between atoms: _99  and  _101
REMARK   46  A    between atoms: _101  and  _102
REMARK   47  A    between atoms: _101  and  _104
REMARK   48  A    between atoms: _104  and  _105
REMARK   49  A    between atoms: _108  and  _110
REMARK   50  A    between atoms: _110  and  _111
REMARK   51  A    between atoms: _110  and  _113
REMARK   52  A    between atoms: _113  and  _114
REMARK   53  A    between atoms: _119  and  _120
REMARK   54  A    between atoms: _122  and  _124
REMARK   55  A    between atoms: _124  and  _125
REMARK   56  A    between atoms: _124  and  _127
REMARK   57  A    between atoms: _127  and  _128
REMARK   58  A    between atoms: _128  and  _129
REMARK   59  A    between atoms: _129  and  _130
REMARK   60  A    between atoms: _130  and  _131
REMARK   61  A    between atoms: _135  and  _137
REMARK   62  A    between atoms: _137  and  _138
REMARK   63  A    between atoms: _137  and  _140
REMARK   64  A    between atoms: _140  and  _141
REMARK   65  A    between atoms: _143  and  _145
REMARK   66  A    between atoms: _145  and  _146
REMARK   67  A    between atoms: _145  and  _148
REMARK   68  A    between atoms: _151  and  _153
REMARK   69  A    between atoms: _153  and  _154
REMARK   70  A    between atoms: _153  and  _156
REMARK   71  A    between atoms: _156  and  _157
REMARK   72  A    between atoms: _160  and  _162
REMARK   73  A    between atoms: _162  and  _163
REMARK   74  A    between atoms: _162  and  _165
REMARK   75  A    between atoms: _165  and  _166
REMARK   76  A    between atoms: _169  and  _171
REMARK   77  A    between atoms: _171  and  _172
REMARK   78  A    between atoms: _171  and  _174
REMARK   79  A    between atoms: _174  and  _175
REMARK   80  A    between atoms: _179  and  _180
REMARK   81  A    between atoms: _185  and  _187
REMARK   82  A    between atoms: _187  and  _188
REMARK   83  A    between atoms: _187  and  _190
REMARK   84  A    between atoms: _190  and  _191
REMARK   85  A    between atoms: _194  and  _196
REMARK   86  A    between atoms: _196  and  _197
REMARK   87  A    between atoms: _196  and  _199
REMARK   88  A    between atoms: _202  and  _204
REMARK   89  A    between atoms: _204  and  _205
REMARK   90  A    between atoms: _207  and  _209
REMARK   91  A    between atoms: _209  and  _210
REMARK   92  A    between atoms: _209  and  _212
REMARK   93  A    between atoms: _212  and  _213
REMARK   94  A    between atoms: _219  and  _221
REMARK   95  A    between atoms: _221  and  _222
REMARK   96  A    between atoms: _221  and  _224
REMARK   97  A    between atoms: _224  and  _225
REMARK   98  A    between atoms: _230  and  _232
REMARK   99  A    between atoms: _232  and  _233
REMARK  100  A    between atoms: _232  and  _235
REMARK  101  A    between atoms: _235  and  _236
REMARK  102  A    between atoms: _239  and  _241
REMARK  103  A    between atoms: _241  and  _242
REMARK  104  A    between atoms: _241  and  _244
REMARK  105  A    between atoms: _247  and  _249
REMARK  106  A    between atoms: _249  and  _250
REMARK  107  A    between atoms: _252  and  _254
REMARK  108  A    between atoms: _254  and  _255
REMARK  109  A    between atoms: _257  and  _259
REMARK  110  A    between atoms: _259  and  _260
REMARK  111  A    between atoms: _259  and  _262
REMARK  112  A    between atoms: _262  and  _263
REMARK  113  A    between atoms: _266  and  _268
REMARK  114  A    between atoms: _268  and  _269
REMARK  115  A    between atoms: _268  and  _271
REMARK  116  A    between atoms: _271  and  _272
REMARK  117  A    between atoms: _275  and  _277
REMARK  118  A    between atoms: _277  and  _278
REMARK  119  A    between atoms: _277  and  _280
REMARK  120  A    between atoms: _280  and  _281
REMARK  121  A    between atoms: _284  and  _286
REMARK  122  A    between atoms: _286  and  _287
REMARK  123  A    between atoms: _286  and  _289
REMARK  124  A    between atoms: _289  and  _290
REMARK  125  A    between atoms: _290  and  _291
REMARK  126  A    between atoms: _291  and  _292
REMARK  127  A    between atoms: _301  and  _303
REMARK  128  A    between atoms: _303  and  _304
REMARK  129  A    between atoms: _303  and  _306
REMARK  130  A    between atoms: _306  and  _307
REMARK  131  A    between atoms: _317  and  _319
REMARK  132  A    between atoms: _319  and  _320
REMARK  133  A    between atoms: _319  and  _322
REMARK  134  A    between atoms: _325  and  _327
REMARK  135  A    between atoms: _327  and  _328
REMARK  136  A    between atoms: _327  and  _330
REMARK  137  A    between atoms: _333  and  _335
REMARK  138  A    between atoms: _335  and  _336
REMARK  139  A    between atoms: _335  and  _338
REMARK  140  A    between atoms: _338  and  _339
REMARK  141  A    between atoms: _342  and  _344
REMARK  142  A    between atoms: _344  and  _345
REMARK  143  A    between atoms: _344  and  _347
REMARK  144  A    between atoms: _349  and  _351
REMARK  145  A    between atoms: _351  and  _352
REMARK  146  A    between atoms: _355  and  _357
REMARK  147  A    between atoms: _357  and  _358
REMARK  148  A    between atoms: _357  and  _360
REMARK  149  A    between atoms: _360  and  _361
REMARK  150  A    between atoms: _361  and  _362
REMARK  151  A    between atoms: _362  and  _363
REMARK  152  A    between atoms: _372  and  _374
REMARK  153  A    between atoms: _374  and  _375
REMARK  154  A    between atoms: _378  and  _380
REMARK  155  A    between atoms: _380  and  _381
REMARK  156  A    between atoms: _380  and  _383
REMARK  157  A    between atoms: _383  and  _384
REMARK  158  A    between atoms: _389  and  _391
REMARK  159  A    between atoms: _391  and  _392
REMARK  160  A    between atoms: _391  and  _394
REMARK  161  A    between atoms: _394  and  _395
REMARK  162  A    between atoms: _395  and  _396
REMARK  163  A    between atoms: _396  and  _397
REMARK  164  A    between atoms: _397  and  _398
REMARK  165  A    between atoms: _402  and  _404
REMARK  166  A    between atoms: _404  and  _405
REMARK  167  A    between atoms: _404  and  _407
REMARK  168  A    between atoms: _407  and  _408
REMARK  169  A    between atoms: _408  and  _409
REMARK  170  A    between atoms: _414  and  _416
REMARK  171  A    between atoms: _416  and  _417
REMARK  172  A    between atoms: _416  and  _419
REMARK  173  A    between atoms: _419  and  _420
REMARK  174  A    between atoms: _423  and  _425
REMARK  175  A    between atoms: _425  and  _426
REMARK  176  A    between atoms: _425  and  _428
REMARK  177  A    between atoms: _428  and  _429
REMARK  178  A    between atoms: _433  and  _434
REMARK  179  A    between atoms: _439  and  _441
REMARK  180  A    between atoms: _441  and  _442
REMARK  181  A    between atoms: _441  and  _444
REMARK  182  A    between atoms: _444  and  _445
REMARK  183  A    between atoms: _447  and  _449
REMARK  184  A    between atoms: _449  and  _450
REMARK  185  A    between atoms: _449  and  _452
REMARK  186  A    between atoms: _454  and  _456
REMARK  187  A    between atoms: _456  and  _457
REMARK  188  A    between atoms: _460  and  _462
REMARK  189  A    between atoms: _462  and  _463
REMARK  190  A    between atoms: _462  and  _465
REMARK  191  A    between atoms: _465  and  _466
REMARK  192  A    between atoms: _469  and  _471
REMARK  193  A    between atoms: _471  and  _472
REMARK  194  A    between atoms: _471  and  _474
REMARK  195  A    between atoms: _474  and  _475
REMARK  196  A    between atoms: _477  and  _479
REMARK  197  A    between atoms: _479  and  _480
REMARK  198  A    between atoms: _482  and  _484
REMARK  199  A    between atoms: _484  and  _485
REMARK  200  A    between atoms: _484  and  _487
REMARK  201  A    between atoms: _487  and  _488
REMARK  202  A    between atoms: _491  and  _493
REMARK  203  A    between atoms: _493  and  _494
REMARK  204  A    between atoms: _493  and  _496
REMARK  205  A    between atoms: _496  and  _497
REMARK  206  A    between atoms: _500  and  _502
REMARK  207  A    between atoms: _502  and  _503
REMARK  208  A    between atoms: _502  and  _505
REMARK  209  A    between atoms: _505  and  _506
REMARK                            x       y       z     vdW  Elec       q    Type
REMARK                         _______ _______ _______ _____ _____    ______ ____
ROOT
ATOM      1  O   HOH     1       4.990  10.777  54.887  0.00  0.00    +0.000 OA
ENDROOT
TORSDOF 0
REMARK  Name = ../refined-set-2016/4kax/4kax_pocket.pdb
REMARK  209 active torsions:
REMARK  status: ('A' for Active; 'I' for Inactive)
REMARK    1  A    between atoms: _1  and  _3
REMARK    2  A    between atoms: _3  and  _4
REMARK    3  A    between atoms: _3  and  _6
REMARK    4  A    between atoms: _6  and  _7
REMARK    5  A    between atoms: _7  and  _8
REMARK    6  A    between atoms: _10  and  _12
REMARK    7  A    between atoms: _12  and  _13
REMARK    8  A    between atoms: _12  and  _15
REMARK    9  A    between atoms: _15  and  _16
REMARK   10  A    between atoms: _19  and  _21
REMARK   11  A    between atoms: _21  and  _22
REMARK   12  A    between atoms: _24  and  _26
REMARK   13  A    between atoms: _26  and  _27
REMARK   14  A    between atoms: _26  and  _29
REMARK   15  A    between atoms: _29  and  _30
REMARK   16  A    between atoms: _33  and  _35
REMARK   17  A    between atoms: _35  and  _36
REMARK   18  A    between atoms: _35  and  _38
REMARK   19  A    between atoms: _38  and  _39
REMARK   20  A    between atoms: _42  and  _44
REMARK   21  A    between atoms: _44  and  _45
REMARK   22  A    between atoms: _48  and  _50
REMARK   23  A    between atoms: _50  and  _51
REMARK   24  A    between atoms: _54  and  _56
REMARK   25  A    between atoms: _56  and  _57
REMARK   26  A    between atoms: _59  and  _61
REMARK   27  A    between atoms: _61  and  _62
REMARK   28  A    between atoms: _61  and  _64
REMARK   29  A    between atoms: _64  and  _65
REMARK   30  A    between atoms: _65  and  _66
REMARK   31  A    between atoms: _66  and  _67
REMARK   32  A    between atoms: _67  and  _68
REMARK   33  A    between atoms: _72  and  _74
REMARK   34  A    between atoms: _74  and  _75
REMARK   35  A    between atoms: _74  and  _77
REMARK   36  A    between atoms: _77  and  _78
REMARK   37  A    between atoms: _81  and  _83
REMARK   38  A    between atoms: _83  and  _84
REMARK   39  A    between atoms: _83  and  _86
REMARK   40  A    between atoms: _86  and  _87
REMARK   41  A    between atoms: _90  and  _92
REMARK   42  A    between atoms: _92  and  _93
REMARK   43  A    between atoms: _92  and  _95
REMARK   44  A    between atoms: _95  and  _96
REMARK   45  A    between atoms: _99  and  _101
REMARK   46  A    between atoms: _101  and  _102
REMARK   47  A    between atoms: _101  and  _104
REMARK   48  A    between atoms: _104  and  _105
REMARK   49  A    between atoms: _108  and  _110
REMARK   50  A    between atoms: _110  and  _111
REMARK   51  A    between atoms: _110  and  _113
REMARK   52  A    between atoms: _113  and  _114
REMARK   53  A    between atoms: _119  and  _120
REMARK   54  A    between atoms: _122  and  _124
REMARK   55  A    between atoms: _124  and  _125
REMARK   56  A    between atoms: _124  and  _127
REMARK   57  A    between atoms: _127  and  _128
REMARK   58  A    between atoms: _128  and  _129
REMARK   59  A    between atoms: _129  and  _130
REMARK   60  A    between atoms: _130  and  _131
REMARK   61  A    between atoms: _135  and  _137
REMARK   62  A    between atoms: _137  and  _138
REMARK   63  A    between atoms: _137  and  _140
REMARK   64  A    between atoms: _140  and  _141
REMARK   65  A    between atoms: _143  and  _145
REMARK   66  A    between atoms: _145  and  _146
REMARK   67  A    between atoms: _145  and  _148
REMARK   68  A    between atoms: _151  and  _153
REMARK   69  A    between atoms: _153  and  _154
REMARK   70  A    between atoms: _153  and  _156
REMARK   71  A    between atoms: _156  and  _157
REMARK   72  A    between atoms: _160  and  _162
REMARK   73  A    between atoms: _162  and  _163
REMARK   74  A    between atoms: _162  and  _165
REMARK   75  A    between atoms: _165  and  _166
REMARK   76  A    between atoms: _169  and  _171
REMARK   77  A    between atoms: _171  and  _172
REMARK   78  A    between atoms: _171  and  _174
REMARK   79  A    between atoms: _174  and  _175
REMARK   80  A    between atoms: _179  and  _180
REMARK   81  A    between atoms: _185  and  _187
REMARK   82  A    between atoms: _187  and  _188
REMARK   83  A    between atoms: _187  and  _190
REMARK   84  A    between atoms: _190  and  _191
REMARK   85  A    between atoms: _194  and  _196
REMARK   86  A    between atoms: _196  and  _197
REMARK   87  A    between atoms: _196  and  _199
REMARK   88  A    between atoms: _202  and  _204
REMARK   89  A    between atoms: _204  and  _205
REMARK   90  A    between atoms: _207  and  _209
REMARK   91  A    between atoms: _209  and  _210
REMARK   92  A    between atoms: _209  and  _212
REMARK   93  A    between atoms: _212  and  _213
REMARK   94  A    between atoms: _219  and  _221
REMARK   95  A    between atoms: _221  and  _222
REMARK   96  A    between atoms: _221  and  _224
REMARK   97  A    between atoms: _224  and  _225
REMARK   98  A    between atoms: _230  and  _232
REMARK   99  A    between atoms: _232  and  _233
REMARK  100  A    between atoms: _232  and  _235
REMARK  101  A    between atoms: _235  and  _236
REMARK  102  A    between atoms: _239  and  _241
REMARK  103  A    between atoms: _241  and  _242
REMARK  104  A    between atoms: _241  and  _244
REMARK  105  A    between atoms: _247  and  _249
REMARK  106  A    between atoms: _249  and  _250
REMARK  107  A    between atoms: _252  and  _254
REMARK  108  A    between atoms: _254  and  _255
REMARK  109  A    between atoms: _257  and  _259
REMARK  110  A    between atoms: _259  and  _260
REMARK  111  A    between atoms: _259  and  _262
REMARK  112  A    between atoms: _262  and  _263
REMARK  113  A    between atoms: _266  and  _268
REMARK  114  A    between atoms: _268  and  _269
REMARK  115  A    between atoms: _268  and  _271
REMARK  116  A    between atoms: _271  and  _272
REMARK  117  A    between atoms: _275  and  _277
REMARK  118  A    between atoms: _277  and  _278
REMARK  119  A    between atoms: _277  and  _280
REMARK  120  A    between atoms: _280  and  _281
REMARK  121  A    between atoms: _284  and  _286
REMARK  122  A    between atoms: _286  and  _287
REMARK  123  A    between atoms: _286  and  _289
REMARK  124  A    between atoms: _289  and  _290
REMARK  125  A    between atoms: _290  and  _291
REMARK  126  A    between atoms: _291  and  _292
REMARK  127  A    between atoms: _301  and  _303
REMARK  128  A    between atoms: _303  and  _304
REMARK  129  A    between atoms: _303  and  _306
REMARK  130  A    between atoms: _306  and  _307
REMARK  131  A    between atoms: _317  and  _319
REMARK  132  A    between atoms: _319  and  _320
REMARK  133  A    between atoms: _319  and  _322
REMARK  134  A    between atoms: _325  and  _327
REMARK  135  A    between atoms: _327  and  _328
REMARK  136  A    between atoms: _327  and  _330
REMARK  137  A    between atoms: _333  and  _335
REMARK  138  A    between atoms: _335  and  _336
REMARK  139  A    between atoms: _335  and  _338
REMARK  140  A    between atoms: _338  and  _339
REMARK  141  A    between atoms: _342  and  _344
REMARK  142  A    between atoms: _344  and  _345
REMARK  143  A    between atoms: _344  and  _347
REMARK  144  A    between atoms: _349  and  _351
REMARK  145  A    between atoms: _351  and  _352
REMARK  146  A    between atoms: _355  and  _357
REMARK  147  A    between atoms: _357  and  _358
REMARK  148  A    between atoms: _357  and  _360
REMARK  149  A    between atoms: _360  and  _361
REMARK  150  A    between atoms: _361  and  _362
REMARK  151  A    between atoms: _362  and  _363
REMARK  152  A    between atoms: _372  and  _374
REMARK  153  A    between atoms: _374  and  _375
REMARK  154  A    between atoms: _378  and  _380
REMARK  155  A    between atoms: _380  and  _381
REMARK  156  A    between atoms: _380  and  _383
REMARK  157  A    between atoms: _383  and  _384
REMARK  158  A    between atoms: _389  and  _391
REMARK  159  A    between atoms: _391  and  _392
REMARK  160  A    between atoms: _391  and  _394
REMARK  161  A    between atoms: _394  and  _395
REMARK  162  A    between atoms: _395  and  _396
REMARK  163  A    between atoms: _396  and  _397
REMARK  164  A    between atoms: _397  and  _398
REMARK  165  A    between atoms: _402  and  _404
REMARK  166  A    between atoms: _404  and  _405
REMARK  167  A    between atoms: _404  and  _407
REMARK  168  A    between atoms: _407  and  _408
REMARK  169  A    between atoms: _408  and  _409
REMARK  170  A    between atoms: _414  and  _416
REMARK  171  A    between atoms: _416  and  _417
REMARK  172  A    between atoms: _416  and  _419
REMARK  173  A    between atoms: _419  and  _420
REMARK  174  A    between atoms: _423  and  _425
REMARK  175  A    between atoms: _425  and  _426
REMARK  176  A    between atoms: _425  and  _428
REMARK  177  A    between atoms: _428  and  _429
REMARK  178  A    between atoms: _433  and  _434
REMARK  179  A    between atoms: _439  and  _441
REMARK  180  A    between atoms: _441  and  _442
REMARK  181  A    between atoms: _441  and  _444
REMARK  182  A    between atoms: _444  and  _445
REMARK  183  A    between atoms: _447  and  _449
REMARK  184  A    between atoms: _449  and  _450
REMARK  185  A    between atoms: _449  and  _452
REMARK  186  A    between atoms: _454  and  _456
REMARK  187  A    between atoms: _456  and  _457
REMARK  188  A    between atoms: _460  and  _462
REMARK  189  A    between atoms: _462  and  _463
REMARK  190  A    between atoms: _462  and  _465
REMARK  191  A    between atoms: _465  and  _466
REMARK  192  A    between atoms: _469  and  _471
REMARK  193  A    between atoms: _471  and  _472
REMARK  194  A    between atoms: _471  and  _474
REMARK  195  A    between atoms: _474  and  _475
REMARK  196  A    between atoms: _477  and  _479
REMARK  197  A    between atoms: _479  and  _480
REMARK  198  A    between atoms: _482  and  _484
REMARK  199  A    between atoms: _484  and  _485
REMARK  200  A    between atoms: _484  and  _487
REMARK  201  A    between atoms: _487  and  _488
REMARK  202  A    between atoms: _491  and  _493
REMARK  203  A    between atoms: _493  and  _494
REMARK  204  A    between atoms: _493  and  _496
REMARK  205  A    between atoms: _496  and  _497
REMARK  206  A    between atoms: _500  and  _502
REMARK  207  A    between atoms: _502  and  _503
REMARK  208  A    between atoms: _502  and  _505
REMARK  209  A    between atoms: _505  and  _506
REMARK                            x       y       z     vdW  Elec       q    Type
REMARK                         _______ _______ _______ _____ _____    ______ ____
ROOT
ATOM      1  O   HOH     1      -1.103  12.216  54.029  0.00  0.00    +0.000 OA
ENDROOT
TORSDOF 0
REMARK  Name = ../refined-set-2016/4kax/4kax_pocket.pdb
REMARK  209 active torsions:
REMARK  status: ('A' for Active; 'I' for Inactive)
REMARK    1  A    between atoms: _1  and  _3
REMARK    2  A    between atoms: _3  and  _4
REMARK    3  A    between atoms: _3  and  _6
REMARK    4  A    between atoms: _6  and  _7
REMARK    5  A    between atoms: _7  and  _8
REMARK    6  A    between atoms: _10  and  _12
REMARK    7  A    between atoms: _12  and  _13
REMARK    8  A    between atoms: _12  and  _15
REMARK    9  A    between atoms: _15  and  _16
REMARK   10  A    between atoms: _19  and  _21
REMARK   11  A    between atoms: _21  and  _22
REMARK   12  A    between atoms: _24  and  _26
REMARK   13  A    between atoms: _26  and  _27
REMARK   14  A    between atoms: _26  and  _29
REMARK   15  A    between atoms: _29  and  _30
REMARK   16  A    between atoms: _33  and  _35
REMARK   17  A    between atoms: _35  and  _36
REMARK   18  A    between atoms: _35  and  _38
REMARK   19  A    between atoms: _38  and  _39
REMARK   20  A    between atoms: _42  and  _44
REMARK   21  A    between atoms: _44  and  _45
REMARK   22  A    between atoms: _48  and  _50
REMARK   23  A    between atoms: _50  and  _51
REMARK   24  A    between atoms: _54  and  _56
REMARK   25  A    between atoms: _56  and  _57
REMARK   26  A    between atoms: _59  and  _61
REMARK   27  A    between atoms: _61  and  _62
REMARK   28  A    between atoms: _61  and  _64
REMARK   29  A    between atoms: _64  and  _65
REMARK   30  A    between atoms: _65  and  _66
REMARK   31  A    between atoms: _66  and  _67
REMARK   32  A    between atoms: _67  and  _68
REMARK   33  A    between atoms: _72  and  _74
REMARK   34  A    between atoms: _74  and  _75
REMARK   35  A    between atoms: _74  and  _77
REMARK   36  A    between atoms: _77  and  _78
REMARK   37  A    between atoms: _81  and  _83
REMARK   38  A    between atoms: _83  and  _84
REMARK   39  A    between atoms: _83  and  _86
REMARK   40  A    between atoms: _86  and  _87
REMARK   41  A    between atoms: _90  and  _92
REMARK   42  A    between atoms: _92  and  _93
REMARK   43  A    between atoms: _92  and  _95
REMARK   44  A    between atoms: _95  and  _96
REMARK   45  A    between atoms: _99  and  _101
REMARK   46  A    between atoms: _101  and  _102
REMARK   47  A    between atoms: _101  and  _104
REMARK   48  A    between atoms: _104  and  _105
REMARK   49  A    between atoms: _108  and  _110
REMARK   50  A    between atoms: _110  and  _111
REMARK   51  A    between atoms: _110  and  _113
REMARK   52  A    between atoms: _113  and  _114
REMARK   53  A    between atoms: _119  and  _120
REMARK   54  A    between atoms: _122  and  _124
REMARK   55  A    between atoms: _124  and  _125
REMARK   56  A    between atoms: _124  and  _127
REMARK   57  A    between atoms: _127  and  _128
REMARK   58  A    between atoms: _128  and  _129
REMARK   59  A    between atoms: _129  and  _130
REMARK   60  A    between atoms: _130  and  _131
REMARK   61  A    between atoms: _135  and  _137
REMARK   62  A    between atoms: _137  and  _138
REMARK   63  A    between atoms: _137  and  _140
REMARK   64  A    between atoms: _140  and  _141
REMARK   65  A    between atoms: _143  and  _145
REMARK   66  A    between atoms: _145  and  _146
REMARK   67  A    between atoms: _145  and  _148
REMARK   68  A    between atoms: _151  and  _153
REMARK   69  A    between atoms: _153  and  _154
REMARK   70  A    between atoms: _153  and  _156
REMARK   71  A    between atoms: _156  and  _157
REMARK   72  A    between atoms: _160  and  _162
REMARK   73  A    between atoms: _162  and  _163
REMARK   74  A    between atoms: _162  and  _165
REMARK   75  A    between atoms: _165  and  _166
REMARK   76  A    between atoms: _169  and  _171
REMARK   77  A    between atoms: _171  and  _172
REMARK   78  A    between atoms: _171  and  _174
REMARK   79  A    between atoms: _174  and  _175
REMARK   80  A    between atoms: _179  and  _180
REMARK   81  A    between atoms: _185  and  _187
REMARK   82  A    between atoms: _187  and  _188
REMARK   83  A    between atoms: _187  and  _190
REMARK   84  A    between atoms: _190  and  _191
REMARK   85  A    between atoms: _194  and  _196
REMARK   86  A    between atoms: _196  and  _197
REMARK   87  A    between atoms: _196  and  _199
REMARK   88  A    between atoms: _202  and  _204
REMARK   89  A    between atoms: _204  and  _205
REMARK   90  A    between atoms: _207  and  _209
REMARK   91  A    between atoms: _209  and  _210
REMARK   92  A    between atoms: _209  and  _212
REMARK   93  A    between atoms: _212  and  _213
REMARK   94  A    between atoms: _219  and  _221
REMARK   95  A    between atoms: _221  and  _222
REMARK   96  A    between atoms: _221  and  _224
REMARK   97  A    between atoms: _224  and  _225
REMARK   98  A    between atoms: _230  and  _232
REMARK   99  A    between atoms: _232  and  _233
REMARK  100  A    between atoms: _232  and  _235
REMARK  101  A    between atoms: _235  and  _236
REMARK  102  A    between atoms: _239  and  _241
REMARK  103  A    between atoms: _241  and  _242
REMARK  104  A    between atoms: _241  and  _244
REMARK  105  A    between atoms: _247  and  _249
REMARK  106  A    between atoms: _249  and  _250
REMARK  107  A    between atoms: _252  and  _254
REMARK  108  A    between atoms: _254  and  _255
REMARK  109  A    between atoms: _257  and  _259
REMARK  110  A    between atoms: _259  and  _260
REMARK  111  A    between atoms: _259  and  _262
REMARK  112  A    between atoms: _262  and  _263
REMARK  113  A    between atoms: _266  and  _268
REMARK  114  A    between atoms: _268  and  _269
REMARK  115  A    between atoms: _268  and  _271
REMARK  116  A    between atoms: _271  and  _272
REMARK  117  A    between atoms: _275  and  _277
REMARK  118  A    between atoms: _277  and  _278
REMARK  119  A    between atoms: _277  and  _280
REMARK  120  A    between atoms: _280  and  _281
REMARK  121  A    between atoms: _284  and  _286
REMARK  122  A    between atoms: _286  and  _287
REMARK  123  A    between atoms: _286  and  _289
REMARK  124  A    between atoms: _289  and  _290
REMARK  125  A    between atoms: _290  and  _291
REMARK  126  A    between atoms: _291  and  _292
REMARK  127  A    between atoms: _301  and  _303
REMARK  128  A    between atoms: _303  and  _304
REMARK  129  A    between atoms: _303  and  _306
REMARK  130  A    between atoms: _306  and  _307
REMARK  131  A    between atoms: _317  and  _319
REMARK  132  A    between atoms: _319  and  _320
REMARK  133  A    between atoms: _319  and  _322
REMARK  134  A    between atoms: _325  and  _327
REMARK  135  A    between atoms: _327  and  _328
REMARK  136  A    between atoms: _327  and  _330
REMARK  137  A    between atoms: _333  and  _335
REMARK  138  A    between atoms: _335  and  _336
REMARK  139  A    between atoms: _335  and  _338
REMARK  140  A    between atoms: _338  and  _339
REMARK  141  A    between atoms: _342  and  _344
REMARK  142  A    between atoms: _344  and  _345
REMARK  143  A    between atoms: _344  and  _347
REMARK  144  A    between atoms: _349  and  _351
REMARK  145  A    between atoms: _351  and  _352
REMARK  146  A    between atoms: _355  and  _357
REMARK  147  A    between atoms: _357  and  _358
REMARK  148  A    between atoms: _357  and  _360
REMARK  149  A    between atoms: _360  and  _361
REMARK  150  A    between atoms: _361  and  _362
REMARK  151  A    between atoms: _362  and  _363
REMARK  152  A    between atoms: _372  and  _374
REMARK  153  A    between atoms: _374  and  _375
REMARK  154  A    between atoms: _378  and  _380
REMARK  155  A    between atoms: _380  and  _381
REMARK  156  A    between atoms: _380  and  _383
REMARK  157  A    between atoms: _383  and  _384
REMARK  158  A    between atoms: _389  and  _391
REMARK  159  A    between atoms: _391  and  _392
REMARK  160  A    between atoms: _391  and  _394
REMARK  161  A    between atoms: _394  and  _395
REMARK  162  A    between atoms: _395  and  _396
REMARK  163  A    between atoms: _396  and  _397
REMARK  164  A    between atoms: _397  and  _398
REMARK  165  A    between atoms: _402  and  _404
REMARK  166  A    between atoms: _404  and  _405
REMARK  167  A    between atoms: _404  and  _407
REMARK  168  A    between atoms: _407  and  _408
REMARK  169  A    between atoms: _408  and  _409
REMARK  170  A    between atoms: _414  and  _416
REMARK  171  A    between atoms: _416  and  _417
REMARK  172  A    between atoms: _416  and  _419
REMARK  173  A    between atoms: _419  and  _420
REMARK  174  A    between atoms: _423  and  _425
REMARK  175  A    between atoms: _425  and  _426
REMARK  176  A    between atoms: _425  and  _428
REMARK  177  A    between atoms: _428  and  _429
REMARK  178  A    between atoms: _433  and  _434
REMARK  179  A    between atoms: _439  and  _441
REMARK  180  A    between atoms: _441  and  _442
REMARK  181  A    between atoms: _441  and  _444
REMARK  182  A    between atoms: _444  and  _445
REMARK  183  A    between atoms: _447  and  _449
REMARK  184  A    between atoms: _449  and  _450
REMARK  185  A    between atoms: _449  and  _452
REMARK  186  A    between atoms: _454  and  _456
REMARK  187  A    between atoms: _456  and  _457
REMARK  188  A    between atoms: _460  and  _462
REMARK  189  A    between atoms: _462  and  _463
REMARK  190  A    between atoms: _462  and  _465
REMARK  191  A    between atoms: _465  and  _466
REMARK  192  A    between atoms: _469  and  _471
REMARK  193  A    between atoms: _471  and  _472
REMARK  194  A    between atoms: _471  and  _474
REMARK  195  A    between atoms: _474  and  _475
REMARK  196  A    between atoms: _477  and  _479
REMARK  197  A    between atoms: _479  and  _480
REMARK  198  A    between atoms: _482  and  _484
REMARK  199  A    between atoms: _484  and  _485
REMARK  200  A    between atoms: _484  and  _487
REMARK  201  A    between atoms: _487  and  _488
REMARK  202  A    between atoms: _491  and  _493
REMARK  203  A    between atoms: _493  and  _494
REMARK  204  A    between atoms: _493  and  _496
REMARK  205  A    between atoms: _496  and  _497
REMARK  206  A    between atoms: _500  and  _502
REMARK  207  A    between atoms: _502  and  _503
REMARK  208  A    between atoms: _502  and  _505
REMARK  209  A    between atoms: _505  and  _506
REMARK                            x       y       z     vdW  Elec       q    Type
REMARK                         _______ _______ _______ _____ _____    ______ ____
ROOT
ATOM      1  O   HOH     1       2.028  10.782  48.232  0.00  0.00    +0.000 OA
ENDROOT
TORSDOF 0
REMARK  Name = ../refined-set-2016/4kax/4kax_pocket.pdb
REMARK  209 active torsions:
REMARK  status: ('A' for Active; 'I' for Inactive)
REMARK    1  A    between atoms: _1  and  _3
REMARK    2  A    between atoms: _3  and  _4
REMARK    3  A    between atoms: _3  and  _6
REMARK    4  A    between atoms: _6  and  _7
REMARK    5  A    between atoms: _7  and  _8
REMARK    6  A    between atoms: _10  and  _12
REMARK    7  A    between atoms: _12  and  _13
REMARK    8  A    between atoms: _12  and  _15
REMARK    9  A    between atoms: _15  and  _16
REMARK   10  A    between atoms: _19  and  _21
REMARK   11  A    between atoms: _21  and  _22
REMARK   12  A    between atoms: _24  and  _26
REMARK   13  A    between atoms: _26  and  _27
REMARK   14  A    between atoms: _26  and  _29
REMARK   15  A    between atoms: _29  and  _30
REMARK   16  A    between atoms: _33  and  _35
REMARK   17  A    between atoms: _35  and  _36
REMARK   18  A    between atoms: _35  and  _38
REMARK   19  A    between atoms: _38  and  _39
REMARK   20  A    between atoms: _42  and  _44
REMARK   21  A    between atoms: _44  and  _45
REMARK   22  A    between atoms: _48  and  _50
REMARK   23  A    between atoms: _50  and  _51
REMARK   24  A    between atoms: _54  and  _56
REMARK   25  A    between atoms: _56  and  _57
REMARK   26  A    between atoms: _59  and  _61
REMARK   27  A    between atoms: _61  and  _62
REMARK   28  A    between atoms: _61  and  _64
REMARK   29  A    between atoms: _64  and  _65
REMARK   30  A    between atoms: _65  and  _66
REMARK   31  A    between atoms: _66  and  _67
REMARK   32  A    between atoms: _67  and  _68
REMARK   33  A    between atoms: _72  and  _74
REMARK   34  A    between atoms: _74  and  _75
REMARK   35  A    between atoms: _74  and  _77
REMARK   36  A    between atoms: _77  and  _78
REMARK   37  A    between atoms: _81  and  _83
REMARK   38  A    between atoms: _83  and  _84
REMARK   39  A    between atoms: _83  and  _86
REMARK   40  A    between atoms: _86  and  _87
REMARK   41  A    between atoms: _90  and  _92
REMARK   42  A    between atoms: _92  and  _93
REMARK   43  A    between atoms: _92  and  _95
REMARK   44  A    between atoms: _95  and  _96
REMARK   45  A    between atoms: _99  and  _101
REMARK   46  A    between atoms: _101  and  _102
REMARK   47  A    between atoms: _101  and  _104
REMARK   48  A    between atoms: _104  and  _105
REMARK   49  A    between atoms: _108  and  _110
REMARK   50  A    between atoms: _110  and  _111
REMARK   51  A    between atoms: _110  and  _113
REMARK   52  A    between atoms: _113  and  _114
REMARK   53  A    between atoms: _119  and  _120
REMARK   54  A    between atoms: _122  and  _124
REMARK   55  A    between atoms: _124  and  _125
REMARK   56  A    between atoms: _124  and  _127
REMARK   57  A    between atoms: _127  and  _128
REMARK   58  A    between atoms: _128  and  _129
REMARK   59  A    between atoms: _129  and  _130
REMARK   60  A    between atoms: _130  and  _131
REMARK   61  A    between atoms: _135  and  _137
REMARK   62  A    between atoms: _137  and  _138
REMARK   63  A    between atoms: _137  and  _140
REMARK   64  A    between atoms: _140  and  _141
REMARK   65  A    between atoms: _143  and  _145
REMARK   66  A    between atoms: _145  and  _146
REMARK   67  A    between atoms: _145  and  _148
REMARK   68  A    between atoms: _151  and  _153
REMARK   69  A    between atoms: _153  and  _154
REMARK   70  A    between atoms: _153  and  _156
REMARK   71  A    between atoms: _156  and  _157
REMARK   72  A    between atoms: _160  and  _162
REMARK   73  A    between atoms: _162  and  _163
REMARK   74  A    between atoms: _162  and  _165
REMARK   75  A    between atoms: _165  and  _166
REMARK   76  A    between atoms: _169  and  _171
REMARK   77  A    between atoms: _171  and  _172
REMARK   78  A    between atoms: _171  and  _174
REMARK   79  A    between atoms: _174  and  _175
REMARK   80  A    between atoms: _179  and  _180
REMARK   81  A    between atoms: _185  and  _187
REMARK   82  A    between atoms: _187  and  _188
REMARK   83  A    between atoms: _187  and  _190
REMARK   84  A    between atoms: _190  and  _191
REMARK   85  A    between atoms: _194  and  _196
REMARK   86  A    between atoms: _196  and  _197
REMARK   87  A    between atoms: _196  and  _199
REMARK   88  A    between atoms: _202  and  _204
REMARK   89  A    between atoms: _204  and  _205
REMARK   90  A    between atoms: _207  and  _209
REMARK   91  A    between atoms: _209  and  _210
REMARK   92  A    between atoms: _209  and  _212
REMARK   93  A    between atoms: _212  and  _213
REMARK   94  A    between atoms: _219  and  _221
REMARK   95  A    between atoms: _221  and  _222
REMARK   96  A    between atoms: _221  and  _224
REMARK   97  A    between atoms: _224  and  _225
REMARK   98  A    between atoms: _230  and  _232
REMARK   99  A    between atoms: _232  and  _233
REMARK  100  A    between atoms: _232  and  _235
REMARK  101  A    between atoms: _235  and  _236
REMARK  102  A    between atoms: _239  and  _241
REMARK  103  A    between atoms: _241  and  _242
REMARK  104  A    between atoms: _241  and  _244
REMARK  105  A    between atoms: _247  and  _249
REMARK  106  A    between atoms: _249  and  _250
REMARK  107  A    between atoms: _252  and  _254
REMARK  108  A    between atoms: _254  and  _255
REMARK  109  A    between atoms: _257  and  _259
REMARK  110  A    between atoms: _259  and  _260
REMARK  111  A    between atoms: _259  and  _262
REMARK  112  A    between atoms: _262  and  _263
REMARK  113  A    between atoms: _266  and  _268
REMARK  114  A    between atoms: _268  and  _269
REMARK  115  A    between atoms: _268  and  _271
REMARK  116  A    between atoms: _271  and  _272
REMARK  117  A    between atoms: _275  and  _277
REMARK  118  A    between atoms: _277  and  _278
REMARK  119  A    between atoms: _277  and  _280
REMARK  120  A    between atoms: _280  and  _281
REMARK  121  A    between atoms: _284  and  _286
REMARK  122  A    between atoms: _286  and  _287
REMARK  123  A    between atoms: _286  and  _289
REMARK  124  A    between atoms: _289  and  _290
REMARK  125  A    between atoms: _290  and  _291
REMARK  126  A    between atoms: _291  and  _292
REMARK  127  A    between atoms: _301  and  _303
REMARK  128  A    between atoms: _303  and  _304
REMARK  129  A    between atoms: _303  and  _306
REMARK  130  A    between atoms: _306  and  _307
REMARK  131  A    between atoms: _317  and  _319
REMARK  132  A    between atoms: _319  and  _320
REMARK  133  A    between atoms: _319  and  _322
REMARK  134  A    between atoms: _325  and  _327
REMARK  135  A    between atoms: _327  and  _328
REMARK  136  A    between atoms: _327  and  _330
REMARK  137  A    between atoms: _333  and  _335
REMARK  138  A    between atoms: _335  and  _336
REMARK  139  A    between atoms: _335  and  _338
REMARK  140  A    between atoms: _338  and  _339
REMARK  141  A    between atoms: _342  and  _344
REMARK  142  A    between atoms: _344  and  _345
REMARK  143  A    between atoms: _344  and  _347
REMARK  144  A    between atoms: _349  and  _351
REMARK  145  A    between atoms: _351  and  _352
REMARK  146  A    between atoms: _355  and  _357
REMARK  147  A    between atoms: _357  and  _358
REMARK  148  A    between atoms: _357  and  _360
REMARK  149  A    between atoms: _360  and  _361
REMARK  150  A    between atoms: _361  and  _362
REMARK  151  A    between atoms: _362  and  _363
REMARK  152  A    between atoms: _372  and  _374
REMARK  153  A    between atoms: _374  and  _375
REMARK  154  A    between atoms: _378  and  _380
REMARK  155  A    between atoms: _380  and  _381
REMARK  156  A    between atoms: _380  and  _383
REMARK  157  A    between atoms: _383  and  _384
REMARK  158  A    between atoms: _389  and  _391
REMARK  159  A    between atoms: _391  and  _392
REMARK  160  A    between atoms: _391  and  _394
REMARK  161  A    between atoms: _394  and  _395
REMARK  162  A    between atoms: _395  and  _396
REMARK  163  A    between atoms: _396  and  _397
REMARK  164  A    between atoms: _397  and  _398
REMARK  165  A    between atoms: _402  and  _404
REMARK  166  A    between atoms: _404  and  _405
REMARK  167  A    between atoms: _404  and  _407
REMARK  168  A    between atoms: _407  and  _408
REMARK  169  A    between atoms: _408  and  _409
REMARK  170  A    between atoms: _414  and  _416
REMARK  171  A    between atoms: _416  and  _417
REMARK  172  A    between atoms: _416  and  _419
REMARK  173  A    between atoms: _419  and  _420
REMARK  174  A    between atoms: _423  and  _425
REMARK  175  A    between atoms: _425  and  _426
REMARK  176  A    between atoms: _425  and  _428
REMARK  177  A    between atoms: _428  and  _429
REMARK  178  A    between atoms: _433  and  _434
REMARK  179  A    between atoms: _439  and  _441
REMARK  180  A    between atoms: _441  and  _442
REMARK  181  A    between atoms: _441  and  _444
REMARK  182  A    between atoms: _444  and  _445
REMARK  183  A    between atoms: _447  and  _449
REMARK  184  A    between atoms: _449  and  _450
REMARK  185  A    between atoms: _449  and  _452
REMARK  186  A    between atoms: _454  and  _456
REMARK  187  A    between atoms: _456  and  _457
REMARK  188  A    between atoms: _460  and  _462
REMARK  189  A    between atoms: _462  and  _463
REMARK  190  A    between atoms: _462  and  _465
REMARK  191  A    between atoms: _465  and  _466
REMARK  192  A    between atoms: _469  and  _471
REMARK  193  A    between atoms: _471  and  _472
REMARK  194  A    between atoms: _471  and  _474
REMARK  195  A    between atoms: _474  and  _475
REMARK  196  A    between atoms: _477  and  _479
REMARK  197  A    between atoms: _479  and  _480
REMARK  198  A    between atoms: _482  and  _484
REMARK  199  A    between atoms: _484  and  _485
REMARK  200  A    between atoms: _484  and  _487
REMARK  201  A    between atoms: _487  and  _488
REMARK  202  A    between atoms: _491  and  _493
REMARK  203  A    between atoms: _493  and  _494
REMARK  204  A    between atoms: _493  and  _496
REMARK  205  A    between atoms: _496  and  _497
REMARK  206  A    between atoms: _500  and  _502
REMARK  207  A    between atoms: _502  and  _503
REMARK  208  A    between atoms: _502  and  _505
REMARK  209  A    between atoms: _505  and  _506
REMARK                            x       y       z     vdW  Elec       q    Type
REMARK                         _______ _______ _______ _____ _____    ______ ____
ROOT
ATOM      1  O   HOH     1      -7.927   4.191  48.648  0.00  0.00    +0.000 OA
ENDROOT
TORSDOF 0
REMARK  Name = ../refined-set-2016/4kax/4kax_pocket.pdb
REMARK  209 active torsions:
REMARK  status: ('A' for Active; 'I' for Inactive)
REMARK    1  A    between atoms: _1  and  _3
REMARK    2  A    between atoms: _3  and  _4
REMARK    3  A    between atoms: _3  and  _6
REMARK    4  A    between atoms: _6  and  _7
REMARK    5  A    between atoms: _7  and  _8
REMARK    6  A    between atoms: _10  and  _12
REMARK    7  A    between atoms: _12  and  _13
REMARK    8  A    between atoms: _12  and  _15
REMARK    9  A    between atoms: _15  and  _16
REMARK   10  A    between atoms: _19  and  _21
REMARK   11  A    between atoms: _21  and  _22
REMARK   12  A    between atoms: _24  and  _26
REMARK   13  A    between atoms: _26  and  _27
REMARK   14  A    between atoms: _26  and  _29
REMARK   15  A    between atoms: _29  and  _30
REMARK   16  A    between atoms: _33  and  _35
REMARK   17  A    between atoms: _35  and  _36
REMARK   18  A    between atoms: _35  and  _38
REMARK   19  A    between atoms: _38  and  _39
REMARK   20  A    between atoms: _42  and  _44
REMARK   21  A    between atoms: _44  and  _45
REMARK   22  A    between atoms: _48  and  _50
REMARK   23  A    between atoms: _50  and  _51
REMARK   24  A    between atoms: _54  and  _56
REMARK   25  A    between atoms: _56  and  _57
REMARK   26  A    between atoms: _59  and  _61
REMARK   27  A    between atoms: _61  and  _62
REMARK   28  A    between atoms: _61  and  _64
REMARK   29  A    between atoms: _64  and  _65
REMARK   30  A    between atoms: _65  and  _66
REMARK   31  A    between atoms: _66  and  _67
REMARK   32  A    between atoms: _67  and  _68
REMARK   33  A    between atoms: _72  and  _74
REMARK   34  A    between atoms: _74  and  _75
REMARK   35  A    between atoms: _74  and  _77
REMARK   36  A    between atoms: _77  and  _78
REMARK   37  A    between atoms: _81  and  _83
REMARK   38  A    between atoms: _83  and  _84
REMARK   39  A    between atoms: _83  and  _86
REMARK   40  A    between atoms: _86  and  _87
REMARK   41  A    between atoms: _90  and  _92
REMARK   42  A    between atoms: _92  and  _93
REMARK   43  A    between atoms: _92  and  _95
REMARK   44  A    between atoms: _95  and  _96
REMARK   45  A    between atoms: _99  and  _101
REMARK   46  A    between atoms: _101  and  _102
REMARK   47  A    between atoms: _101  and  _104
REMARK   48  A    between atoms: _104  and  _105
REMARK   49  A    between atoms: _108  and  _110
REMARK   50  A    between atoms: _110  and  _111
REMARK   51  A    between atoms: _110  and  _113
REMARK   52  A    between atoms: _113  and  _114
REMARK   53  A    between atoms: _119  and  _120
REMARK   54  A    between atoms: _122  and  _124
REMARK   55  A    between atoms: _124  and  _125
REMARK   56  A    between atoms: _124  and  _127
REMARK   57  A    between atoms: _127  and  _128
REMARK   58  A    between atoms: _128  and  _129
REMARK   59  A    between atoms: _129  and  _130
REMARK   60  A    between atoms: _130  and  _131
REMARK   61  A    between atoms: _135  and  _137
REMARK   62  A    between atoms: _137  and  _138
REMARK   63  A    between atoms: _137  and  _140
REMARK   64  A    between atoms: _140  and  _141
REMARK   65  A    between atoms: _143  and  _145
REMARK   66  A    between atoms: _145  and  _146
REMARK   67  A    between atoms: _145  and  _148
REMARK   68  A    between atoms: _151  and  _153
REMARK   69  A    between atoms: _153  and  _154
REMARK   70  A    between atoms: _153  and  _156
REMARK   71  A    between atoms: _156  and  _157
REMARK   72  A    between atoms: _160  and  _162
REMARK   73  A    between atoms: _162  and  _163
REMARK   74  A    between atoms: _162  and  _165
REMARK   75  A    between atoms: _165  and  _166
REMARK   76  A    between atoms: _169  and  _171
REMARK   77  A    between atoms: _171  and  _172
REMARK   78  A    between atoms: _171  and  _174
REMARK   79  A    between atoms: _174  and  _175
REMARK   80  A    between atoms: _179  and  _180
REMARK   81  A    between atoms: _185  and  _187
REMARK   82  A    between atoms: _187  and  _188
REMARK   83  A    between atoms: _187  and  _190
REMARK   84  A    between atoms: _190  and  _191
REMARK   85  A    between atoms: _194  and  _196
REMARK   86  A    between atoms: _196  and  _197
REMARK   87  A    between atoms: _196  and  _199
REMARK   88  A    between atoms: _202  and  _204
REMARK   89  A    between atoms: _204  and  _205
REMARK   90  A    between atoms: _207  and  _209
REMARK   91  A    between atoms: _209  and  _210
REMARK   92  A    between atoms: _209  and  _212
REMARK   93  A    between atoms: _212  and  _213
REMARK   94  A    between atoms: _219  and  _221
REMARK   95  A    between atoms: _221  and  _222
REMARK   96  A    between atoms: _221  and  _224
REMARK   97  A    between atoms: _224  and  _225
REMARK   98  A    between atoms: _230  and  _232
REMARK   99  A    between atoms: _232  and  _233
REMARK  100  A    between atoms: _232  and  _235
REMARK  101  A    between atoms: _235  and  _236
REMARK  102  A    between atoms: _239  and  _241
REMARK  103  A    between atoms: _241  and  _242
REMARK  104  A    between atoms: _241  and  _244
REMARK  105  A    between atoms: _247  and  _249
REMARK  106  A    between atoms: _249  and  _250
REMARK  107  A    between atoms: _252  and  _254
REMARK  108  A    between atoms: _254  and  _255
REMARK  109  A    between atoms: _257  and  _259
REMARK  110  A    between atoms: _259  and  _260
REMARK  111  A    between atoms: _259  and  _262
REMARK  112  A    between atoms: _262  and  _263
REMARK  113  A    between atoms: _266  and  _268
REMARK  114  A    between atoms: _268  and  _269
REMARK  115  A    between atoms: _268  and  _271
REMARK  116  A    between atoms: _271  and  _272
REMARK  117  A    between atoms: _275  and  _277
REMARK  118  A    between atoms: _277  and  _278
REMARK  119  A    between atoms: _277  and  _280
REMARK  120  A    between atoms: _280  and  _281
REMARK  121  A    between atoms: _284  and  _286
REMARK  122  A    between atoms: _286  and  _287
REMARK  123  A    between atoms: _286  and  _289
REMARK  124  A    between atoms: _289  and  _290
REMARK  125  A    between atoms: _290  and  _291
REMARK  126  A    between atoms: _291  and  _292
REMARK  127  A    between atoms: _301  and  _303
REMARK  128  A    between atoms: _303  and  _304
REMARK  129  A    between atoms: _303  and  _306
REMARK  130  A    between atoms: _306  and  _307
REMARK  131  A    between atoms: _317  and  _319
REMARK  132  A    between atoms: _319  and  _320
REMARK  133  A    between atoms: _319  and  _322
REMARK  134  A    between atoms: _325  and  _327
REMARK  135  A    between atoms: _327  and  _328
REMARK  136  A    between atoms: _327  and  _330
REMARK  137  A    between atoms: _333  and  _335
REMARK  138  A    between atoms: _335  and  _336
REMARK  139  A    between atoms: _335  and  _338
REMARK  140  A    between atoms: _338  and  _339
REMARK  141  A    between atoms: _342  and  _344
REMARK  142  A    between atoms: _344  and  _345
REMARK  143  A    between atoms: _344  and  _347
REMARK  144  A    between atoms: _349  and  _351
REMARK  145  A    between atoms: _351  and  _352
REMARK  146  A    between atoms: _355  and  _357
REMARK  147  A    between atoms: _357  and  _358
REMARK  148  A    between atoms: _357  and  _360
REMARK  149  A    between atoms: _360  and  _361
REMARK  150  A    between atoms: _361  and  _362
REMARK  151  A    between atoms: _362  and  _363
REMARK  152  A    between atoms: _372  and  _374
REMARK  153  A    between atoms: _374  and  _375
REMARK  154  A    between atoms: _378  and  _380
REMARK  155  A    between atoms: _380  and  _381
REMARK  156  A    between atoms: _380  and  _383
REMARK  157  A    between atoms: _383  and  _384
REMARK  158  A    between atoms: _389  and  _391
REMARK  159  A    between atoms: _391  and  _392
REMARK  160  A    between atoms: _391  and  _394
REMARK  161  A    between atoms: _394  and  _395
REMARK  162  A    between atoms: _395  and  _396
REMARK  163  A    between atoms: _396  and  _397
REMARK  164  A    between atoms: _397  and  _398
REMARK  165  A    between atoms: _402  and  _404
REMARK  166  A    between atoms: _404  and  _405
REMARK  167  A    between atoms: _404  and  _407
REMARK  168  A    between atoms: _407  and  _408
REMARK  169  A    between atoms: _408  and  _409
REMARK  170  A    between atoms: _414  and  _416
REMARK  171  A    between atoms: _416  and  _417
REMARK  172  A    between atoms: _416  and  _419
REMARK  173  A    between atoms: _419  and  _420
REMARK  174  A    between atoms: _423  and  _425
REMARK  175  A    between atoms: _425  and  _426
REMARK  176  A    between atoms: _425  and  _428
REMARK  177  A    between atoms: _428  and  _429
REMARK  178  A    between atoms: _433  and  _434
REMARK  179  A    between atoms: _439  and  _441
REMARK  180  A    between atoms: _441  and  _442
REMARK  181  A    between atoms: _441  and  _444
REMARK  182  A    between atoms: _444  and  _445
REMARK  183  A    between atoms: _447  and  _449
REMARK  184  A    between atoms: _449  and  _450
REMARK  185  A    between atoms: _449  and  _452
REMARK  186  A    between atoms: _454  and  _456
REMARK  187  A    between atoms: _456  and  _457
REMARK  188  A    between atoms: _460  and  _462
REMARK  189  A    between atoms: _462  and  _463
REMARK  190  A    between atoms: _462  and  _465
REMARK  191  A    between atoms: _465  and  _466
REMARK  192  A    between atoms: _469  and  _471
REMARK  193  A    between atoms: _471  and  _472
REMARK  194  A    between atoms: _471  and  _474
REMARK  195  A    between atoms: _474  and  _475
REMARK  196  A    between atoms: _477  and  _479
REMARK  197  A    between atoms: _479  and  _480
REMARK  198  A    between atoms: _482  and  _484
REMARK  199  A    between atoms: _484  and  _485
REMARK  200  A    between atoms: _484  and  _487
REMARK  201  A    between atoms: _487  and  _488
REMARK  202  A    between atoms: _491  and  _493
REMARK  203  A    between atoms: _493  and  _494
REMARK  204  A    between atoms: _493  and  _496
REMARK  205  A    between atoms: _496  and  _497
REMARK  206  A    between atoms: _500  and  _502
REMARK  207  A    between atoms: _502  and  _503
REMARK  208  A    between atoms: _502  and  _505
REMARK  209  A    between atoms: _505  and  _506
REMARK                            x       y       z     vdW  Elec       q    Type
REMARK                         _______ _______ _______ _____ _____    ______ ____
ROOT
ATOM      1  O   HOH     1       7.701  10.936  54.751  0.00  0.00    +0.000 OA
ENDROOT
TORSDOF 0
REMARK  Name = ../refined-set-2016/4kax/4kax_pocket.pdb
REMARK  209 active torsions:
REMARK  status: ('A' for Active; 'I' for Inactive)
REMARK    1  A    between atoms: _1  and  _3
REMARK    2  A    between atoms: _3  and  _4
REMARK    3  A    between atoms: _3  and  _6
REMARK    4  A    between atoms: _6  and  _7
REMARK    5  A    between atoms: _7  and  _8
REMARK    6  A    between atoms: _10  and  _12
REMARK    7  A    between atoms: _12  and  _13
REMARK    8  A    between atoms: _12  and  _15
REMARK    9  A    between atoms: _15  and  _16
REMARK   10  A    between atoms: _19  and  _21
REMARK   11  A    between atoms: _21  and  _22
REMARK   12  A    between atoms: _24  and  _26
REMARK   13  A    between atoms: _26  and  _27
REMARK   14  A    between atoms: _26  and  _29
REMARK   15  A    between atoms: _29  and  _30
REMARK   16  A    between atoms: _33  and  _35
REMARK   17  A    between atoms: _35  and  _36
REMARK   18  A    between atoms: _35  and  _38
REMARK   19  A    between atoms: _38  and  _39
REMARK   20  A    between atoms: _42  and  _44
REMARK   21  A    between atoms: _44  and  _45
REMARK   22  A    between atoms: _48  and  _50
REMARK   23  A    between atoms: _50  and  _51
REMARK   24  A    between atoms: _54  and  _56
REMARK   25  A    between atoms: _56  and  _57
REMARK   26  A    between atoms: _59  and  _61
REMARK   27  A    between atoms: _61  and  _62
REMARK   28  A    between atoms: _61  and  _64
REMARK   29  A    between atoms: _64  and  _65
REMARK   30  A    between atoms: _65  and  _66
REMARK   31  A    between atoms: _66  and  _67
REMARK   32  A    between atoms: _67  and  _68
REMARK   33  A    between atoms: _72  and  _74
REMARK   34  A    between atoms: _74  and  _75
REMARK   35  A    between atoms: _74  and  _77
REMARK   36  A    between atoms: _77  and  _78
REMARK   37  A    between atoms: _81  and  _83
REMARK   38  A    between atoms: _83  and  _84
REMARK   39  A    between atoms: _83  and  _86
REMARK   40  A    between atoms: _86  and  _87
REMARK   41  A    between atoms: _90  and  _92
REMARK   42  A    between atoms: _92  and  _93
REMARK   43  A    between atoms: _92  and  _95
REMARK   44  A    between atoms: _95  and  _96
REMARK   45  A    between atoms: _99  and  _101
REMARK   46  A    between atoms: _101  and  _102
REMARK   47  A    between atoms: _101  and  _104
REMARK   48  A    between atoms: _104  and  _105
REMARK   49  A    between atoms: _108  and  _110
REMARK   50  A    between atoms: _110  and  _111
REMARK   51  A    between atoms: _110  and  _113
REMARK   52  A    between atoms: _113  and  _114
REMARK   53  A    between atoms: _119  and  _120
REMARK   54  A    between atoms: _122  and  _124
REMARK   55  A    between atoms: _124  and  _125
REMARK   56  A    between atoms: _124  and  _127
REMARK   57  A    between atoms: _127  and  _128
REMARK   58  A    between atoms: _128  and  _129
REMARK   59  A    between atoms: _129  and  _130
REMARK   60  A    between atoms: _130  and  _131
REMARK   61  A    between atoms: _135  and  _137
REMARK   62  A    between atoms: _137  and  _138
REMARK   63  A    between atoms: _137  and  _140
REMARK   64  A    between atoms: _140  and  _141
REMARK   65  A    between atoms: _143  and  _145
REMARK   66  A    between atoms: _145  and  _146
REMARK   67  A    between atoms: _145  and  _148
REMARK   68  A    between atoms: _151  and  _153
REMARK   69  A    between atoms: _153  and  _154
REMARK   70  A    between atoms: _153  and  _156
REMARK   71  A    between atoms: _156  and  _157
REMARK   72  A    between atoms: _160  and  _162
REMARK   73  A    between atoms: _162  and  _163
REMARK   74  A    between atoms: _162  and  _165
REMARK   75  A    between atoms: _165  and  _166
REMARK   76  A    between atoms: _169  and  _171
REMARK   77  A    between atoms: _171  and  _172
REMARK   78  A    between atoms: _171  and  _174
REMARK   79  A    between atoms: _174  and  _175
REMARK   80  A    between atoms: _179  and  _180
REMARK   81  A    between atoms: _185  and  _187
REMARK   82  A    between atoms: _187  and  _188
REMARK   83  A    between atoms: _187  and  _190
REMARK   84  A    between atoms: _190  and  _191
REMARK   85  A    between atoms: _194  and  _196
REMARK   86  A    between atoms: _196  and  _197
REMARK   87  A    between atoms: _196  and  _199
REMARK   88  A    between atoms: _202  and  _204
REMARK   89  A    between atoms: _204  and  _205
REMARK   90  A    between atoms: _207  and  _209
REMARK   91  A    between atoms: _209  and  _210
REMARK   92  A    between atoms: _209  and  _212
REMARK   93  A    between atoms: _212  and  _213
REMARK   94  A    between atoms: _219  and  _221
REMARK   95  A    between atoms: _221  and  _222
REMARK   96  A    between atoms: _221  and  _224
REMARK   97  A    between atoms: _224  and  _225
REMARK   98  A    between atoms: _230  and  _232
REMARK   99  A    between atoms: _232  and  _233
REMARK  100  A    between atoms: _232  and  _235
REMARK  101  A    between atoms: _235  and  _236
REMARK  102  A    between atoms: _239  and  _241
REMARK  103  A    between atoms: _241  and  _242
REMARK  104  A    between atoms: _241  and  _244
REMARK  105  A    between atoms: _247  and  _249
REMARK  106  A    between atoms: _249  and  _250
REMARK  107  A    between atoms: _252  and  _254
REMARK  108  A    between atoms: _254  and  _255
REMARK  109  A    between atoms: _257  and  _259
REMARK  110  A    between atoms: _259  and  _260
REMARK  111  A    between atoms: _259  and  _262
REMARK  112  A    between atoms: _262  and  _263
REMARK  113  A    between atoms: _266  and  _268
REMARK  114  A    between atoms: _268  and  _269
REMARK  115  A    between atoms: _268  and  _271
REMARK  116  A    between atoms: _271  and  _272
REMARK  117  A    between atoms: _275  and  _277
REMARK  118  A    between atoms: _277  and  _278
REMARK  119  A    between atoms: _277  and  _280
REMARK  120  A    between atoms: _280  and  _281
REMARK  121  A    between atoms: _284  and  _286
REMARK  122  A    between atoms: _286  and  _287
REMARK  123  A    between atoms: _286  and  _289
REMARK  124  A    between atoms: _289  and  _290
REMARK  125  A    between atoms: _290  and  _291
REMARK  126  A    between atoms: _291  and  _292
REMARK  127  A    between atoms: _301  and  _303
REMARK  128  A    between atoms: _303  and  _304
REMARK  129  A    between atoms: _303  and  _306
REMARK  130  A    between atoms: _306  and  _307
REMARK  131  A    between atoms: _317  and  _319
REMARK  132  A    between atoms: _319  and  _320
REMARK  133  A    between atoms: _319  and  _322
REMARK  134  A    between atoms: _325  and  _327
REMARK  135  A    between atoms: _327  and  _328
REMARK  136  A    between atoms: _327  and  _330
REMARK  137  A    between atoms: _333  and  _335
REMARK  138  A    between atoms: _335  and  _336
REMARK  139  A    between atoms: _335  and  _338
REMARK  140  A    between atoms: _338  and  _339
REMARK  141  A    between atoms: _342  and  _344
REMARK  142  A    between atoms: _344  and  _345
REMARK  143  A    between atoms: _344  and  _347
REMARK  144  A    between atoms: _349  and  _351
REMARK  145  A    between atoms: _351  and  _352
REMARK  146  A    between atoms: _355  and  _357
REMARK  147  A    between atoms: _357  and  _358
REMARK  148  A    between atoms: _357  and  _360
REMARK  149  A    between atoms: _360  and  _361
REMARK  150  A    between atoms: _361  and  _362
REMARK  151  A    between atoms: _362  and  _363
REMARK  152  A    between atoms: _372  and  _374
REMARK  153  A    between atoms: _374  and  _375
REMARK  154  A    between atoms: _378  and  _380
REMARK  155  A    between atoms: _380  and  _381
REMARK  156  A    between atoms: _380  and  _383
REMARK  157  A    between atoms: _383  and  _384
REMARK  158  A    between atoms: _389  and  _391
REMARK  159  A    between atoms: _391  and  _392
REMARK  160  A    between atoms: _391  and  _394
REMARK  161  A    between atoms: _394  and  _395
REMARK  162  A    between atoms: _395  and  _396
REMARK  163  A    between atoms: _396  and  _397
REMARK  164  A    between atoms: _397  and  _398
REMARK  165  A    between atoms: _402  and  _404
REMARK  166  A    between atoms: _404  and  _405
REMARK  167  A    between atoms: _404  and  _407
REMARK  168  A    between atoms: _407  and  _408
REMARK  169  A    between atoms: _408  and  _409
REMARK  170  A    between atoms: _414  and  _416
REMARK  171  A    between atoms: _416  and  _417
REMARK  172  A    between atoms: _416  and  _419
REMARK  173  A    between atoms: _419  and  _420
REMARK  174  A    between atoms: _423  and  _425
REMARK  175  A    between atoms: _425  and  _426
REMARK  176  A    between atoms: _425  and  _428
REMARK  177  A    between atoms: _428  and  _429
REMARK  178  A    between atoms: _433  and  _434
REMARK  179  A    between atoms: _439  and  _441
REMARK  180  A    between atoms: _441  and  _442
REMARK  181  A    between atoms: _441  and  _444
REMARK  182  A    between atoms: _444  and  _445
REMARK  183  A    between atoms: _447  and  _449
REMARK  184  A    between atoms: _449  and  _450
REMARK  185  A    between atoms: _449  and  _452
REMARK  186  A    between atoms: _454  and  _456
REMARK  187  A    between atoms: _456  and  _457
REMARK  188  A    between atoms: _460  and  _462
REMARK  189  A    between atoms: _462  and  _463
REMARK  190  A    between atoms: _462  and  _465
REMARK  191  A    between atoms: _465  and  _466
REMARK  192  A    between atoms: _469  and  _471
REMARK  193  A    between atoms: _471  and  _472
REMARK  194  A    between atoms: _471  and  _474
REMARK  195  A    between atoms: _474  and  _475
REMARK  196  A    between atoms: _477  and  _479
REMARK  197  A    between atoms: _479  and  _480
REMARK  198  A    between atoms: _482  and  _484
REMARK  199  A    between atoms: _484  and  _485
REMARK  200  A    between atoms: _484  and  _487
REMARK  201  A    between atoms: _487  and  _488
REMARK  202  A    between atoms: _491  and  _493
REMARK  203  A    between atoms: _493  and  _494
REMARK  204  A    between atoms: _493  and  _496
REMARK  205  A    between atoms: _496  and  _497
REMARK  206  A    between atoms: _500  and  _502
REMARK  207  A    between atoms: _502  and  _503
REMARK  208  A    between atoms: _502  and  _505
REMARK  209  A    between atoms: _505  and  _506
REMARK                            x       y       z     vdW  Elec       q    Type
REMARK                         _______ _______ _______ _____ _____    ______ ____
ROOT
ATOM      1  O   HOH     1     -12.156   9.135  53.611  0.00  0.00    +0.000 OA
ENDROOT
TORSDOF 0
REMARK  Name = ../refined-set-2016/4kax/4kax_pocket.pdb
REMARK  209 active torsions:
REMARK  status: ('A' for Active; 'I' for Inactive)
REMARK    1  A    between atoms: _1  and  _3
REMARK    2  A    between atoms: _3  and  _4
REMARK    3  A    between atoms: _3  and  _6
REMARK    4  A    between atoms: _6  and  _7
REMARK    5  A    between atoms: _7  and  _8
REMARK    6  A    between atoms: _10  and  _12
REMARK    7  A    between atoms: _12  and  _13
REMARK    8  A    between atoms: _12  and  _15
REMARK    9  A    between atoms: _15  and  _16
REMARK   10  A    between atoms: _19  and  _21
REMARK   11  A    between atoms: _21  and  _22
REMARK   12  A    between atoms: _24  and  _26
REMARK   13  A    between atoms: _26  and  _27
REMARK   14  A    between atoms: _26  and  _29
REMARK   15  A    between atoms: _29  and  _30
REMARK   16  A    between atoms: _33  and  _35
REMARK   17  A    between atoms: _35  and  _36
REMARK   18  A    between atoms: _35  and  _38
REMARK   19  A    between atoms: _38  and  _39
REMARK   20  A    between atoms: _42  and  _44
REMARK   21  A    between atoms: _44  and  _45
REMARK   22  A    between atoms: _48  and  _50
REMARK   23  A    between atoms: _50  and  _51
REMARK   24  A    between atoms: _54  and  _56
REMARK   25  A    between atoms: _56  and  _57
REMARK   26  A    between atoms: _59  and  _61
REMARK   27  A    between atoms: _61  and  _62
REMARK   28  A    between atoms: _61  and  _64
REMARK   29  A    between atoms: _64  and  _65
REMARK   30  A    between atoms: _65  and  _66
REMARK   31  A    between atoms: _66  and  _67
REMARK   32  A    between atoms: _67  and  _68
REMARK   33  A    between atoms: _72  and  _74
REMARK   34  A    between atoms: _74  and  _75
REMARK   35  A    between atoms: _74  and  _77
REMARK   36  A    between atoms: _77  and  _78
REMARK   37  A    between atoms: _81  and  _83
REMARK   38  A    between atoms: _83  and  _84
REMARK   39  A    between atoms: _83  and  _86
REMARK   40  A    between atoms: _86  and  _87
REMARK   41  A    between atoms: _90  and  _92
REMARK   42  A    between atoms: _92  and  _93
REMARK   43  A    between atoms: _92  and  _95
REMARK   44  A    between atoms: _95  and  _96
REMARK   45  A    between atoms: _99  and  _101
REMARK   46  A    between atoms: _101  and  _102
REMARK   47  A    between atoms: _101  and  _104
REMARK   48  A    between atoms: _104  and  _105
REMARK   49  A    between atoms: _108  and  _110
REMARK   50  A    between atoms: _110  and  _111
REMARK   51  A    between atoms: _110  and  _113
REMARK   52  A    between atoms: _113  and  _114
REMARK   53  A    between atoms: _119  and  _120
REMARK   54  A    between atoms: _122  and  _124
REMARK   55  A    between atoms: _124  and  _125
REMARK   56  A    between atoms: _124  and  _127
REMARK   57  A    between atoms: _127  and  _128
REMARK   58  A    between atoms: _128  and  _129
REMARK   59  A    between atoms: _129  and  _130
REMARK   60  A    between atoms: _130  and  _131
REMARK   61  A    between atoms: _135  and  _137
REMARK   62  A    between atoms: _137  and  _138
REMARK   63  A    between atoms: _137  and  _140
REMARK   64  A    between atoms: _140  and  _141
REMARK   65  A    between atoms: _143  and  _145
REMARK   66  A    between atoms: _145  and  _146
REMARK   67  A    between atoms: _145  and  _148
REMARK   68  A    between atoms: _151  and  _153
REMARK   69  A    between atoms: _153  and  _154
REMARK   70  A    between atoms: _153  and  _156
REMARK   71  A    between atoms: _156  and  _157
REMARK   72  A    between atoms: _160  and  _162
REMARK   73  A    between atoms: _162  and  _163
REMARK   74  A    between atoms: _162  and  _165
REMARK   75  A    between atoms: _165  and  _166
REMARK   76  A    between atoms: _169  and  _171
REMARK   77  A    between atoms: _171  and  _172
REMARK   78  A    between atoms: _171  and  _174
REMARK   79  A    between atoms: _174  and  _175
REMARK   80  A    between atoms: _179  and  _180
REMARK   81  A    between atoms: _185  and  _187
REMARK   82  A    between atoms: _187  and  _188
REMARK   83  A    between atoms: _187  and  _190
REMARK   84  A    between atoms: _190  and  _191
REMARK   85  A    between atoms: _194  and  _196
REMARK   86  A    between atoms: _196  and  _197
REMARK   87  A    between atoms: _196  and  _199
REMARK   88  A    between atoms: _202  and  _204
REMARK   89  A    between atoms: _204  and  _205
REMARK   90  A    between atoms: _207  and  _209
REMARK   91  A    between atoms: _209  and  _210
REMARK   92  A    between atoms: _209  and  _212
REMARK   93  A    between atoms: _212  and  _213
REMARK   94  A    between atoms: _219  and  _221
REMARK   95  A    between atoms: _221  and  _222
REMARK   96  A    between atoms: _221  and  _224
REMARK   97  A    between atoms: _224  and  _225
REMARK   98  A    between atoms: _230  and  _232
REMARK   99  A    between atoms: _232  and  _233
REMARK  100  A    between atoms: _232  and  _235
REMARK  101  A    between atoms: _235  and  _236
REMARK  102  A    between atoms: _239  and  _241
REMARK  103  A    between atoms: _241  and  _242
REMARK  104  A    between atoms: _241  and  _244
REMARK  105  A    between atoms: _247  and  _249
REMARK  106  A    between atoms: _249  and  _250
REMARK  107  A    between atoms: _252  and  _254
REMARK  108  A    between atoms: _254  and  _255
REMARK  109  A    between atoms: _257  and  _259
REMARK  110  A    between atoms: _259  and  _260
REMARK  111  A    between atoms: _259  and  _262
REMARK  112  A    between atoms: _262  and  _263
REMARK  113  A    between atoms: _266  and  _268
REMARK  114  A    between atoms: _268  and  _269
REMARK  115  A    between atoms: _268  and  _271
REMARK  116  A    between atoms: _271  and  _272
REMARK  117  A    between atoms: _275  and  _277
REMARK  118  A    between atoms: _277  and  _278
REMARK  119  A    between atoms: _277  and  _280
REMARK  120  A    between atoms: _280  and  _281
REMARK  121  A    between atoms: _284  and  _286
REMARK  122  A    between atoms: _286  and  _287
REMARK  123  A    between atoms: _286  and  _289
REMARK  124  A    between atoms: _289  and  _290
REMARK  125  A    between atoms: _290  and  _291
REMARK  126  A    between atoms: _291  and  _292
REMARK  127  A    between atoms: _301  and  _303
REMARK  128  A    between atoms: _303  and  _304
REMARK  129  A    between atoms: _303  and  _306
REMARK  130  A    between atoms: _306  and  _307
REMARK  131  A    between atoms: _317  and  _319
REMARK  132  A    between atoms: _319  and  _320
REMARK  133  A    between atoms: _319  and  _322
REMARK  134  A    between atoms: _325  and  _327
REMARK  135  A    between atoms: _327  and  _328
REMARK  136  A    between atoms: _327  and  _330
REMARK  137  A    between atoms: _333  and  _335
REMARK  138  A    between atoms: _335  and  _336
REMARK  139  A    between atoms: _335  and  _338
REMARK  140  A    between atoms: _338  and  _339
REMARK  141  A    between atoms: _342  and  _344
REMARK  142  A    between atoms: _344  and  _345
REMARK  143  A    between atoms: _344  and  _347
REMARK  144  A    between atoms: _349  and  _351
REMARK  145  A    between atoms: _351  and  _352
REMARK  146  A    between atoms: _355  and  _357
REMARK  147  A    between atoms: _357  and  _358
REMARK  148  A    between atoms: _357  and  _360
REMARK  149  A    between atoms: _360  and  _361
REMARK  150  A    between atoms: _361  and  _362
REMARK  151  A    between atoms: _362  and  _363
REMARK  152  A    between atoms: _372  and  _374
REMARK  153  A    between atoms: _374  and  _375
REMARK  154  A    between atoms: _378  and  _380
REMARK  155  A    between atoms: _380  and  _381
REMARK  156  A    between atoms: _380  and  _383
REMARK  157  A    between atoms: _383  and  _384
REMARK  158  A    between atoms: _389  and  _391
REMARK  159  A    between atoms: _391  and  _392
REMARK  160  A    between atoms: _391  and  _394
REMARK  161  A    between atoms: _394  and  _395
REMARK  162  A    between atoms: _395  and  _396
REMARK  163  A    between atoms: _396  and  _397
REMARK  164  A    between atoms: _397  and  _398
REMARK  165  A    between atoms: _402  and  _404
REMARK  166  A    between atoms: _404  and  _405
REMARK  167  A    between atoms: _404  and  _407
REMARK  168  A    between atoms: _407  and  _408
REMARK  169  A    between atoms: _408  and  _409
REMARK  170  A    between atoms: _414  and  _416
REMARK  171  A    between atoms: _416  and  _417
REMARK  172  A    between atoms: _416  and  _419
REMARK  173  A    between atoms: _419  and  _420
REMARK  174  A    between atoms: _423  and  _425
REMARK  175  A    between atoms: _425  and  _426
REMARK  176  A    between atoms: _425  and  _428
REMARK  177  A    between atoms: _428  and  _429
REMARK  178  A    between atoms: _433  and  _434
REMARK  179  A    between atoms: _439  and  _441
REMARK  180  A    between atoms: _441  and  _442
REMARK  181  A    between atoms: _441  and  _444
REMARK  182  A    between atoms: _444  and  _445
REMARK  183  A    between atoms: _447  and  _449
REMARK  184  A    between atoms: _449  and  _450
REMARK  185  A    between atoms: _449  and  _452
REMARK  186  A    between atoms: _454  and  _456
REMARK  187  A    between atoms: _456  and  _457
REMARK  188  A    between atoms: _460  and  _462
REMARK  189  A    between atoms: _462  and  _463
REMARK  190  A    between atoms: _462  and  _465
REMARK  191  A    between atoms: _465  and  _466
REMARK  192  A    between atoms: _469  and  _471
REMARK  193  A    between atoms: _471  and  _472
REMARK  194  A    between atoms: _471  and  _474
REMARK  195  A    between atoms: _474  and  _475
REMARK  196  A    between atoms: _477  and  _479
REMARK  197  A    between atoms: _479  and  _480
REMARK  198  A    between atoms: _482  and  _484
REMARK  199  A    between atoms: _484  and  _485
REMARK  200  A    between atoms: _484  and  _487
REMARK  201  A    between atoms: _487  and  _488
REMARK  202  A    between atoms: _491  and  _493
REMARK  203  A    between atoms: _493  and  _494
REMARK  204  A    between atoms: _493  and  _496
REMARK  205  A    between atoms: _496  and  _497
REMARK  206  A    between atoms: _500  and  _502
REMARK  207  A    between atoms: _502  and  _503
REMARK  208  A    between atoms: _502  and  _505
REMARK  209  A    between atoms: _505  and  _506
REMARK                            x       y       z     vdW  Elec       q    Type
REMARK                         _______ _______ _______ _____ _____    ______ ____
ROOT
ATOM      1  O   HOH     1      -1.793  11.879  51.382  0.00  0.00    +0.000 OA
ENDROOT
TORSDOF 0
REMARK  Name = ../refined-set-2016/4kax/4kax_pocket.pdb
REMARK  209 active torsions:
REMARK  status: ('A' for Active; 'I' for Inactive)
REMARK    1  A    between atoms: _1  and  _3
REMARK    2  A    between atoms: _3  and  _4
REMARK    3  A    between atoms: _3  and  _6
REMARK    4  A    between atoms: _6  and  _7
REMARK    5  A    between atoms: _7  and  _8
REMARK    6  A    between atoms: _10  and  _12
REMARK    7  A    between atoms: _12  and  _13
REMARK    8  A    between atoms: _12  and  _15
REMARK    9  A    between atoms: _15  and  _16
REMARK   10  A    between atoms: _19  and  _21
REMARK   11  A    between atoms: _21  and  _22
REMARK   12  A    between atoms: _24  and  _26
REMARK   13  A    between atoms: _26  and  _27
REMARK   14  A    between atoms: _26  and  _29
REMARK   15  A    between atoms: _29  and  _30
REMARK   16  A    between atoms: _33  and  _35
REMARK   17  A    between atoms: _35  and  _36
REMARK   18  A    between atoms: _35  and  _38
REMARK   19  A    between atoms: _38  and  _39
REMARK   20  A    between atoms: _42  and  _44
REMARK   21  A    between atoms: _44  and  _45
REMARK   22  A    between atoms: _48  and  _50
REMARK   23  A    between atoms: _50  and  _51
REMARK   24  A    between atoms: _54  and  _56
REMARK   25  A    between atoms: _56  and  _57
REMARK   26  A    between atoms: _59  and  _61
REMARK   27  A    between atoms: _61  and  _62
REMARK   28  A    between atoms: _61  and  _64
REMARK   29  A    between atoms: _64  and  _65
REMARK   30  A    between atoms: _65  and  _66
REMARK   31  A    between atoms: _66  and  _67
REMARK   32  A    between atoms: _67  and  _68
REMARK   33  A    between atoms: _72  and  _74
REMARK   34  A    between atoms: _74  and  _75
REMARK   35  A    between atoms: _74  and  _77
REMARK   36  A    between atoms: _77  and  _78
REMARK   37  A    between atoms: _81  and  _83
REMARK   38  A    between atoms: _83  and  _84
REMARK   39  A    between atoms: _83  and  _86
REMARK   40  A    between atoms: _86  and  _87
REMARK   41  A    between atoms: _90  and  _92
REMARK   42  A    between atoms: _92  and  _93
REMARK   43  A    between atoms: _92  and  _95
REMARK   44  A    between atoms: _95  and  _96
REMARK   45  A    between atoms: _99  and  _101
REMARK   46  A    between atoms: _101  and  _102
REMARK   47  A    between atoms: _101  and  _104
REMARK   48  A    between atoms: _104  and  _105
REMARK   49  A    between atoms: _108  and  _110
REMARK   50  A    between atoms: _110  and  _111
REMARK   51  A    between atoms: _110  and  _113
REMARK   52  A    between atoms: _113  and  _114
REMARK   53  A    between atoms: _119  and  _120
REMARK   54  A    between atoms: _122  and  _124
REMARK   55  A    between atoms: _124  and  _125
REMARK   56  A    between atoms: _124  and  _127
REMARK   57  A    between atoms: _127  and  _128
REMARK   58  A    between atoms: _128  and  _129
REMARK   59  A    between atoms: _129  and  _130
REMARK   60  A    between atoms: _130  and  _131
REMARK   61  A    between atoms: _135  and  _137
REMARK   62  A    between atoms: _137  and  _138
REMARK   63  A    between atoms: _137  and  _140
REMARK   64  A    between atoms: _140  and  _141
REMARK   65  A    between atoms: _143  and  _145
REMARK   66  A    between atoms: _145  and  _146
REMARK   67  A    between atoms: _145  and  _148
REMARK   68  A    between atoms: _151  and  _153
REMARK   69  A    between atoms: _153  and  _154
REMARK   70  A    between atoms: _153  and  _156
REMARK   71  A    between atoms: _156  and  _157
REMARK   72  A    between atoms: _160  and  _162
REMARK   73  A    between atoms: _162  and  _163
REMARK   74  A    between atoms: _162  and  _165
REMARK   75  A    between atoms: _165  and  _166
REMARK   76  A    between atoms: _169  and  _171
REMARK   77  A    between atoms: _171  and  _172
REMARK   78  A    between atoms: _171  and  _174
REMARK   79  A    between atoms: _174  and  _175
REMARK   80  A    between atoms: _179  and  _180
REMARK   81  A    between atoms: _185  and  _187
REMARK   82  A    between atoms: _187  and  _188
REMARK   83  A    between atoms: _187  and  _190
REMARK   84  A    between atoms: _190  and  _191
REMARK   85  A    between atoms: _194  and  _196
REMARK   86  A    between atoms: _196  and  _197
REMARK   87  A    between atoms: _196  and  _199
REMARK   88  A    between atoms: _202  and  _204
REMARK   89  A    between atoms: _204  and  _205
REMARK   90  A    between atoms: _207  and  _209
REMARK   91  A    between atoms: _209  and  _210
REMARK   92  A    between atoms: _209  and  _212
REMARK   93  A    between atoms: _212  and  _213
REMARK   94  A    between atoms: _219  and  _221
REMARK   95  A    between atoms: _221  and  _222
REMARK   96  A    between atoms: _221  and  _224
REMARK   97  A    between atoms: _224  and  _225
REMARK   98  A    between atoms: _230  and  _232
REMARK   99  A    between atoms: _232  and  _233
REMARK  100  A    between atoms: _232  and  _235
REMARK  101  A    between atoms: _235  and  _236
REMARK  102  A    between atoms: _239  and  _241
REMARK  103  A    between atoms: _241  and  _242
REMARK  104  A    between atoms: _241  and  _244
REMARK  105  A    between atoms: _247  and  _249
REMARK  106  A    between atoms: _249  and  _250
REMARK  107  A    between atoms: _252  and  _254
REMARK  108  A    between atoms: _254  and  _255
REMARK  109  A    between atoms: _257  and  _259
REMARK  110  A    between atoms: _259  and  _260
REMARK  111  A    between atoms: _259  and  _262
REMARK  112  A    between atoms: _262  and  _263
REMARK  113  A    between atoms: _266  and  _268
REMARK  114  A    between atoms: _268  and  _269
REMARK  115  A    between atoms: _268  and  _271
REMARK  116  A    between atoms: _271  and  _272
REMARK  117  A    between atoms: _275  and  _277
REMARK  118  A    between atoms: _277  and  _278
REMARK  119  A    between atoms: _277  and  _280
REMARK  120  A    between atoms: _280  and  _281
REMARK  121  A    between atoms: _284  and  _286
REMARK  122  A    between atoms: _286  and  _287
REMARK  123  A    between atoms: _286  and  _289
REMARK  124  A    between atoms: _289  and  _290
REMARK  125  A    between atoms: _290  and  _291
REMARK  126  A    between atoms: _291  and  _292
REMARK  127  A    between atoms: _301  and  _303
REMARK  128  A    between atoms: _303  and  _304
REMARK  129  A    between atoms: _303  and  _306
REMARK  130  A    between atoms: _306  and  _307
REMARK  131  A    between atoms: _317  and  _319
REMARK  132  A    between atoms: _319  and  _320
REMARK  133  A    between atoms: _319  and  _322
REMARK  134  A    between atoms: _325  and  _327
REMARK  135  A    between atoms: _327  and  _328
REMARK  136  A    between atoms: _327  and  _330
REMARK  137  A    between atoms: _333  and  _335
REMARK  138  A    between atoms: _335  and  _336
REMARK  139  A    between atoms: _335  and  _338
REMARK  140  A    between atoms: _338  and  _339
REMARK  141  A    between atoms: _342  and  _344
REMARK  142  A    between atoms: _344  and  _345
REMARK  143  A    between atoms: _344  and  _347
REMARK  144  A    between atoms: _349  and  _351
REMARK  145  A    between atoms: _351  and  _352
REMARK  146  A    between atoms: _355  and  _357
REMARK  147  A    between atoms: _357  and  _358
REMARK  148  A    between atoms: _357  and  _360
REMARK  149  A    between atoms: _360  and  _361
REMARK  150  A    between atoms: _361  and  _362
REMARK  151  A    between atoms: _362  and  _363
REMARK  152  A    between atoms: _372  and  _374
REMARK  153  A    between atoms: _374  and  _375
REMARK  154  A    between atoms: _378  and  _380
REMARK  155  A    between atoms: _380  and  _381
REMARK  156  A    between atoms: _380  and  _383
REMARK  157  A    between atoms: _383  and  _384
REMARK  158  A    between atoms: _389  and  _391
REMARK  159  A    between atoms: _391  and  _392
REMARK  160  A    between atoms: _391  and  _394
REMARK  161  A    between atoms: _394  and  _395
REMARK  162  A    between atoms: _395  and  _396
REMARK  163  A    between atoms: _396  and  _397
REMARK  164  A    between atoms: _397  and  _398
REMARK  165  A    between atoms: _402  and  _404
REMARK  166  A    between atoms: _404  and  _405
REMARK  167  A    between atoms: _404  and  _407
REMARK  168  A    between atoms: _407  and  _408
REMARK  169  A    between atoms: _408  and  _409
REMARK  170  A    between atoms: _414  and  _416
REMARK  171  A    between atoms: _416  and  _417
REMARK  172  A    between atoms: _416  and  _419
REMARK  173  A    between atoms: _419  and  _420
REMARK  174  A    between atoms: _423  and  _425
REMARK  175  A    between atoms: _425  and  _426
REMARK  176  A    between atoms: _425  and  _428
REMARK  177  A    between atoms: _428  and  _429
REMARK  178  A    between atoms: _433  and  _434
REMARK  179  A    between atoms: _439  and  _441
REMARK  180  A    between atoms: _441  and  _442
REMARK  181  A    between atoms: _441  and  _444
REMARK  182  A    between atoms: _444  and  _445
REMARK  183  A    between atoms: _447  and  _449
REMARK  184  A    between atoms: _449  and  _450
REMARK  185  A    between atoms: _449  and  _452
REMARK  186  A    between atoms: _454  and  _456
REMARK  187  A    between atoms: _456  and  _457
REMARK  188  A    between atoms: _460  and  _462
REMARK  189  A    between atoms: _462  and  _463
REMARK  190  A    between atoms: _462  and  _465
REMARK  191  A    between atoms: _465  and  _466
REMARK  192  A    between atoms: _469  and  _471
REMARK  193  A    between atoms: _471  and  _472
REMARK  194  A    between atoms: _471  and  _474
REMARK  195  A    between atoms: _474  and  _475
REMARK  196  A    between atoms: _477  and  _479
REMARK  197  A    between atoms: _479  and  _480
REMARK  198  A    between atoms: _482  and  _484
REMARK  199  A    between atoms: _484  and  _485
REMARK  200  A    between atoms: _484  and  _487
REMARK  201  A    between atoms: _487  and  _488
REMARK  202  A    between atoms: _491  and  _493
REMARK  203  A    between atoms: _493  and  _494
REMARK  204  A    between atoms: _493  and  _496
REMARK  205  A    between atoms: _496  and  _497
REMARK  206  A    between atoms: _500  and  _502
REMARK  207  A    between atoms: _502  and  _503
REMARK  208  A    between atoms: _502  and  _505
REMARK  209  A    between atoms: _505  and  _506
REMARK                            x       y       z     vdW  Elec       q    Type
REMARK                         _______ _______ _______ _____ _____    ______ ____
ROOT
ATOM      1  O   HOH     1     -10.890  10.596  59.734  0.00  0.00    +0.000 OA
ENDROOT
TORSDOF 0
REMARK  Name = ../refined-set-2016/4kax/4kax_pocket.pdb
REMARK  209 active torsions:
REMARK  status: ('A' for Active; 'I' for Inactive)
REMARK    1  A    between atoms: _1  and  _3
REMARK    2  A    between atoms: _3  and  _4
REMARK    3  A    between atoms: _3  and  _6
REMARK    4  A    between atoms: _6  and  _7
REMARK    5  A    between atoms: _7  and  _8
REMARK    6  A    between atoms: _10  and  _12
REMARK    7  A    between atoms: _12  and  _13
REMARK    8  A    between atoms: _12  and  _15
REMARK    9  A    between atoms: _15  and  _16
REMARK   10  A    between atoms: _19  and  _21
REMARK   11  A    between atoms: _21  and  _22
REMARK   12  A    between atoms: _24  and  _26
REMARK   13  A    between atoms: _26  and  _27
REMARK   14  A    between atoms: _26  and  _29
REMARK   15  A    between atoms: _29  and  _30
REMARK   16  A    between atoms: _33  and  _35
REMARK   17  A    between atoms: _35  and  _36
REMARK   18  A    between atoms: _35  and  _38
REMARK   19  A    between atoms: _38  and  _39
REMARK   20  A    between atoms: _42  and  _44
REMARK   21  A    between atoms: _44  and  _45
REMARK   22  A    between atoms: _48  and  _50
REMARK   23  A    between atoms: _50  and  _51
REMARK   24  A    between atoms: _54  and  _56
REMARK   25  A    between atoms: _56  and  _57
REMARK   26  A    between atoms: _59  and  _61
REMARK   27  A    between atoms: _61  and  _62
REMARK   28  A    between atoms: _61  and  _64
REMARK   29  A    between atoms: _64  and  _65
REMARK   30  A    between atoms: _65  and  _66
REMARK   31  A    between atoms: _66  and  _67
REMARK   32  A    between atoms: _67  and  _68
REMARK   33  A    between atoms: _72  and  _74
REMARK   34  A    between atoms: _74  and  _75
REMARK   35  A    between atoms: _74  and  _77
REMARK   36  A    between atoms: _77  and  _78
REMARK   37  A    between atoms: _81  and  _83
REMARK   38  A    between atoms: _83  and  _84
REMARK   39  A    between atoms: _83  and  _86
REMARK   40  A    between atoms: _86  and  _87
REMARK   41  A    between atoms: _90  and  _92
REMARK   42  A    between atoms: _92  and  _93
REMARK   43  A    between atoms: _92  and  _95
REMARK   44  A    between atoms: _95  and  _96
REMARK   45  A    between atoms: _99  and  _101
REMARK   46  A    between atoms: _101  and  _102
REMARK   47  A    between atoms: _101  and  _104
REMARK   48  A    between atoms: _104  and  _105
REMARK   49  A    between atoms: _108  and  _110
REMARK   50  A    between atoms: _110  and  _111
REMARK   51  A    between atoms: _110  and  _113
REMARK   52  A    between atoms: _113  and  _114
REMARK   53  A    between atoms: _119  and  _120
REMARK   54  A    between atoms: _122  and  _124
REMARK   55  A    between atoms: _124  and  _125
REMARK   56  A    between atoms: _124  and  _127
REMARK   57  A    between atoms: _127  and  _128
REMARK   58  A    between atoms: _128  and  _129
REMARK   59  A    between atoms: _129  and  _130
REMARK   60  A    between atoms: _130  and  _131
REMARK   61  A    between atoms: _135  and  _137
REMARK   62  A    between atoms: _137  and  _138
REMARK   63  A    between atoms: _137  and  _140
REMARK   64  A    between atoms: _140  and  _141
REMARK   65  A    between atoms: _143  and  _145
REMARK   66  A    between atoms: _145  and  _146
REMARK   67  A    between atoms: _145  and  _148
REMARK   68  A    between atoms: _151  and  _153
REMARK   69  A    between atoms: _153  and  _154
REMARK   70  A    between atoms: _153  and  _156
REMARK   71  A    between atoms: _156  and  _157
REMARK   72  A    between atoms: _160  and  _162
REMARK   73  A    between atoms: _162  and  _163
REMARK   74  A    between atoms: _162  and  _165
REMARK   75  A    between atoms: _165  and  _166
REMARK   76  A    between atoms: _169  and  _171
REMARK   77  A    between atoms: _171  and  _172
REMARK   78  A    between atoms: _171  and  _174
REMARK   79  A    between atoms: _174  and  _175
REMARK   80  A    between atoms: _179  and  _180
REMARK   81  A    between atoms: _185  and  _187
REMARK   82  A    between atoms: _187  and  _188
REMARK   83  A    between atoms: _187  and  _190
REMARK   84  A    between atoms: _190  and  _191
REMARK   85  A    between atoms: _194  and  _196
REMARK   86  A    between atoms: _196  and  _197
REMARK   87  A    between atoms: _196  and  _199
REMARK   88  A    between atoms: _202  and  _204
REMARK   89  A    between atoms: _204  and  _205
REMARK   90  A    between atoms: _207  and  _209
REMARK   91  A    between atoms: _209  and  _210
REMARK   92  A    between atoms: _209  and  _212
REMARK   93  A    between atoms: _212  and  _213
REMARK   94  A    between atoms: _219  and  _221
REMARK   95  A    between atoms: _221  and  _222
REMARK   96  A    between atoms: _221  and  _224
REMARK   97  A    between atoms: _224  and  _225
REMARK   98  A    between atoms: _230  and  _232
REMARK   99  A    between atoms: _232  and  _233
REMARK  100  A    between atoms: _232  and  _235
REMARK  101  A    between atoms: _235  and  _236
REMARK  102  A    between atoms: _239  and  _241
REMARK  103  A    between atoms: _241  and  _242
REMARK  104  A    between atoms: _241  and  _244
REMARK  105  A    between atoms: _247  and  _249
REMARK  106  A    between atoms: _249  and  _250
REMARK  107  A    between atoms: _252  and  _254
REMARK  108  A    between atoms: _254  and  _255
REMARK  109  A    between atoms: _257  and  _259
REMARK  110  A    between atoms: _259  and  _260
REMARK  111  A    between atoms: _259  and  _262
REMARK  112  A    between atoms: _262  and  _263
REMARK  113  A    between atoms: _266  and  _268
REMARK  114  A    between atoms: _268  and  _269
REMARK  115  A    between atoms: _268  and  _271
REMARK  116  A    between atoms: _271  and  _272
REMARK  117  A    between atoms: _275  and  _277
REMARK  118  A    between atoms: _277  and  _278
REMARK  119  A    between atoms: _277  and  _280
REMARK  120  A    between atoms: _280  and  _281
REMARK  121  A    between atoms: _284  and  _286
REMARK  122  A    between atoms: _286  and  _287
REMARK  123  A    between atoms: _286  and  _289
REMARK  124  A    between atoms: _289  and  _290
REMARK  125  A    between atoms: _290  and  _291
REMARK  126  A    between atoms: _291  and  _292
REMARK  127  A    between atoms: _301  and  _303
REMARK  128  A    between atoms: _303  and  _304
REMARK  129  A    between atoms: _303  and  _306
REMARK  130  A    between atoms: _306  and  _307
REMARK  131  A    between atoms: _317  and  _319
REMARK  132  A    between atoms: _319  and  _320
REMARK  133  A    between atoms: _319  and  _322
REMARK  134  A    between atoms: _325  and  _327
REMARK  135  A    between atoms: _327  and  _328
REMARK  136  A    between atoms: _327  and  _330
REMARK  137  A    between atoms: _333  and  _335
REMARK  138  A    between atoms: _335  and  _336
REMARK  139  A    between atoms: _335  and  _338
REMARK  140  A    between atoms: _338  and  _339
REMARK  141  A    between atoms: _342  and  _344
REMARK  142  A    between atoms: _344  and  _345
REMARK  143  A    between atoms: _344  and  _347
REMARK  144  A    between atoms: _349  and  _351
REMARK  145  A    between atoms: _351  and  _352
REMARK  146  A    between atoms: _355  and  _357
REMARK  147  A    between atoms: _357  and  _358
REMARK  148  A    between atoms: _357  and  _360
REMARK  149  A    between atoms: _360  and  _361
REMARK  150  A    between atoms: _361  and  _362
REMARK  151  A    between atoms: _362  and  _363
REMARK  152  A    between atoms: _372  and  _374
REMARK  153  A    between atoms: _374  and  _375
REMARK  154  A    between atoms: _378  and  _380
REMARK  155  A    between atoms: _380  and  _381
REMARK  156  A    between atoms: _380  and  _383
REMARK  157  A    between atoms: _383  and  _384
REMARK  158  A    between atoms: _389  and  _391
REMARK  159  A    between atoms: _391  and  _392
REMARK  160  A    between atoms: _391  and  _394
REMARK  161  A    between atoms: _394  and  _395
REMARK  162  A    between atoms: _395  and  _396
REMARK  163  A    between atoms: _396  and  _397
REMARK  164  A    between atoms: _397  and  _398
REMARK  165  A    between atoms: _402  and  _404
REMARK  166  A    between atoms: _404  and  _405
REMARK  167  A    between atoms: _404  and  _407
REMARK  168  A    between atoms: _407  and  _408
REMARK  169  A    between atoms: _408  and  _409
REMARK  170  A    between atoms: _414  and  _416
REMARK  171  A    between atoms: _416  and  _417
REMARK  172  A    between atoms: _416  and  _419
REMARK  173  A    between atoms: _419  and  _420
REMARK  174  A    between atoms: _423  and  _425
REMARK  175  A    between atoms: _425  and  _426
REMARK  176  A    between atoms: _425  and  _428
REMARK  177  A    between atoms: _428  and  _429
REMARK  178  A    between atoms: _433  and  _434
REMARK  179  A    between atoms: _439  and  _441
REMARK  180  A    between atoms: _441  and  _442
REMARK  181  A    between atoms: _441  and  _444
REMARK  182  A    between atoms: _444  and  _445
REMARK  183  A    between atoms: _447  and  _449
REMARK  184  A    between atoms: _449  and  _450
REMARK  185  A    between atoms: _449  and  _452
REMARK  186  A    between atoms: _454  and  _456
REMARK  187  A    between atoms: _456  and  _457
REMARK  188  A    between atoms: _460  and  _462
REMARK  189  A    between atoms: _462  and  _463
REMARK  190  A    between atoms: _462  and  _465
REMARK  191  A    between atoms: _465  and  _466
REMARK  192  A    between atoms: _469  and  _471
REMARK  193  A    between atoms: _471  and  _472
REMARK  194  A    between atoms: _471  and  _474
REMARK  195  A    between atoms: _474  and  _475
REMARK  196  A    between atoms: _477  and  _479
REMARK  197  A    between atoms: _479  and  _480
REMARK  198  A    between atoms: _482  and  _484
REMARK  199  A    between atoms: _484  and  _485
REMARK  200  A    between atoms: _484  and  _487
REMARK  201  A    between atoms: _487  and  _488
REMARK  202  A    between atoms: _491  and  _493
REMARK  203  A    between atoms: _493  and  _494
REMARK  204  A    between atoms: _493  and  _496
REMARK  205  A    between atoms: _496  and  _497
REMARK  206  A    between atoms: _500  and  _502
REMARK  207  A    between atoms: _502  and  _503
REMARK  208  A    between atoms: _502  and  _505
REMARK  209  A    between atoms: _505  and  _506
REMARK                            x       y       z     vdW  Elec       q    Type
REMARK                         _______ _______ _______ _____ _____    ______ ____
ROOT
ATOM      1  O   HOH     1      -3.272  11.923  43.730  0.00  0.00    +0.000 OA
ENDROOT
TORSDOF 0
REMARK  Name = ../refined-set-2016/4kax/4kax_pocket.pdb
REMARK  209 active torsions:
REMARK  status: ('A' for Active; 'I' for Inactive)
REMARK    1  A    between atoms: _1  and  _3
REMARK    2  A    between atoms: _3  and  _4
REMARK    3  A    between atoms: _3  and  _6
REMARK    4  A    between atoms: _6  and  _7
REMARK    5  A    between atoms: _7  and  _8
REMARK    6  A    between atoms: _10  and  _12
REMARK    7  A    between atoms: _12  and  _13
REMARK    8  A    between atoms: _12  and  _15
REMARK    9  A    between atoms: _15  and  _16
REMARK   10  A    between atoms: _19  and  _21
REMARK   11  A    between atoms: _21  and  _22
REMARK   12  A    between atoms: _24  and  _26
REMARK   13  A    between atoms: _26  and  _27
REMARK   14  A    between atoms: _26  and  _29
REMARK   15  A    between atoms: _29  and  _30
REMARK   16  A    between atoms: _33  and  _35
REMARK   17  A    between atoms: _35  and  _36
REMARK   18  A    between atoms: _35  and  _38
REMARK   19  A    between atoms: _38  and  _39
REMARK   20  A    between atoms: _42  and  _44
REMARK   21  A    between atoms: _44  and  _45
REMARK   22  A    between atoms: _48  and  _50
REMARK   23  A    between atoms: _50  and  _51
REMARK   24  A    between atoms: _54  and  _56
REMARK   25  A    between atoms: _56  and  _57
REMARK   26  A    between atoms: _59  and  _61
REMARK   27  A    between atoms: _61  and  _62
REMARK   28  A    between atoms: _61  and  _64
REMARK   29  A    between atoms: _64  and  _65
REMARK   30  A    between atoms: _65  and  _66
REMARK   31  A    between atoms: _66  and  _67
REMARK   32  A    between atoms: _67  and  _68
REMARK   33  A    between atoms: _72  and  _74
REMARK   34  A    between atoms: _74  and  _75
REMARK   35  A    between atoms: _74  and  _77
REMARK   36  A    between atoms: _77  and  _78
REMARK   37  A    between atoms: _81  and  _83
REMARK   38  A    between atoms: _83  and  _84
REMARK   39  A    between atoms: _83  and  _86
REMARK   40  A    between atoms: _86  and  _87
REMARK   41  A    between atoms: _90  and  _92
REMARK   42  A    between atoms: _92  and  _93
REMARK   43  A    between atoms: _92  and  _95
REMARK   44  A    between atoms: _95  and  _96
REMARK   45  A    between atoms: _99  and  _101
REMARK   46  A    between atoms: _101  and  _102
REMARK   47  A    between atoms: _101  and  _104
REMARK   48  A    between atoms: _104  and  _105
REMARK   49  A    between atoms: _108  and  _110
REMARK   50  A    between atoms: _110  and  _111
REMARK   51  A    between atoms: _110  and  _113
REMARK   52  A    between atoms: _113  and  _114
REMARK   53  A    between atoms: _119  and  _120
REMARK   54  A    between atoms: _122  and  _124
REMARK   55  A    between atoms: _124  and  _125
REMARK   56  A    between atoms: _124  and  _127
REMARK   57  A    between atoms: _127  and  _128
REMARK   58  A    between atoms: _128  and  _129
REMARK   59  A    between atoms: _129  and  _130
REMARK   60  A    between atoms: _130  and  _131
REMARK   61  A    between atoms: _135  and  _137
REMARK   62  A    between atoms: _137  and  _138
REMARK   63  A    between atoms: _137  and  _140
REMARK   64  A    between atoms: _140  and  _141
REMARK   65  A    between atoms: _143  and  _145
REMARK   66  A    between atoms: _145  and  _146
REMARK   67  A    between atoms: _145  and  _148
REMARK   68  A    between atoms: _151  and  _153
REMARK   69  A    between atoms: _153  and  _154
REMARK   70  A    between atoms: _153  and  _156
REMARK   71  A    between atoms: _156  and  _157
REMARK   72  A    between atoms: _160  and  _162
REMARK   73  A    between atoms: _162  and  _163
REMARK   74  A    between atoms: _162  and  _165
REMARK   75  A    between atoms: _165  and  _166
REMARK   76  A    between atoms: _169  and  _171
REMARK   77  A    between atoms: _171  and  _172
REMARK   78  A    between atoms: _171  and  _174
REMARK   79  A    between atoms: _174  and  _175
REMARK   80  A    between atoms: _179  and  _180
REMARK   81  A    between atoms: _185  and  _187
REMARK   82  A    between atoms: _187  and  _188
REMARK   83  A    between atoms: _187  and  _190
REMARK   84  A    between atoms: _190  and  _191
REMARK   85  A    between atoms: _194  and  _196
REMARK   86  A    between atoms: _196  and  _197
REMARK   87  A    between atoms: _196  and  _199
REMARK   88  A    between atoms: _202  and  _204
REMARK   89  A    between atoms: _204  and  _205
REMARK   90  A    between atoms: _207  and  _209
REMARK   91  A    between atoms: _209  and  _210
REMARK   92  A    between atoms: _209  and  _212
REMARK   93  A    between atoms: _212  and  _213
REMARK   94  A    between atoms: _219  and  _221
REMARK   95  A    between atoms: _221  and  _222
REMARK   96  A    between atoms: _221  and  _224
REMARK   97  A    between atoms: _224  and  _225
REMARK   98  A    between atoms: _230  and  _232
REMARK   99  A    between atoms: _232  and  _233
REMARK  100  A    between atoms: _232  and  _235
REMARK  101  A    between atoms: _235  and  _236
REMARK  102  A    between atoms: _239  and  _241
REMARK  103  A    between atoms: _241  and  _242
REMARK  104  A    between atoms: _241  and  _244
REMARK  105  A    between atoms: _247  and  _249
REMARK  106  A    between atoms: _249  and  _250
REMARK  107  A    between atoms: _252  and  _254
REMARK  108  A    between atoms: _254  and  _255
REMARK  109  A    between atoms: _257  and  _259
REMARK  110  A    between atoms: _259  and  _260
REMARK  111  A    between atoms: _259  and  _262
REMARK  112  A    between atoms: _262  and  _263
REMARK  113  A    between atoms: _266  and  _268
REMARK  114  A    between atoms: _268  and  _269
REMARK  115  A    between atoms: _268  and  _271
REMARK  116  A    between atoms: _271  and  _272
REMARK  117  A    between atoms: _275  and  _277
REMARK  118  A    between atoms: _277  and  _278
REMARK  119  A    between atoms: _277  and  _280
REMARK  120  A    between atoms: _280  and  _281
REMARK  121  A    between atoms: _284  and  _286
REMARK  122  A    between atoms: _286  and  _287
REMARK  123  A    between atoms: _286  and  _289
REMARK  124  A    between atoms: _289  and  _290
REMARK  125  A    between atoms: _290  and  _291
REMARK  126  A    between atoms: _291  and  _292
REMARK  127  A    between atoms: _301  and  _303
REMARK  128  A    between atoms: _303  and  _304
REMARK  129  A    between atoms: _303  and  _306
REMARK  130  A    between atoms: _306  and  _307
REMARK  131  A    between atoms: _317  and  _319
REMARK  132  A    between atoms: _319  and  _320
REMARK  133  A    between atoms: _319  and  _322
REMARK  134  A    between atoms: _325  and  _327
REMARK  135  A    between atoms: _327  and  _328
REMARK  136  A    between atoms: _327  and  _330
REMARK  137  A    between atoms: _333  and  _335
REMARK  138  A    between atoms: _335  and  _336
REMARK  139  A    between atoms: _335  and  _338
REMARK  140  A    between atoms: _338  and  _339
REMARK  141  A    between atoms: _342  and  _344
REMARK  142  A    between atoms: _344  and  _345
REMARK  143  A    between atoms: _344  and  _347
REMARK  144  A    between atoms: _349  and  _351
REMARK  145  A    between atoms: _351  and  _352
REMARK  146  A    between atoms: _355  and  _357
REMARK  147  A    between atoms: _357  and  _358
REMARK  148  A    between atoms: _357  and  _360
REMARK  149  A    between atoms: _360  and  _361
REMARK  150  A    between atoms: _361  and  _362
REMARK  151  A    between atoms: _362  and  _363
REMARK  152  A    between atoms: _372  and  _374
REMARK  153  A    between atoms: _374  and  _375
REMARK  154  A    between atoms: _378  and  _380
REMARK  155  A    between atoms: _380  and  _381
REMARK  156  A    between atoms: _380  and  _383
REMARK  157  A    between atoms: _383  and  _384
REMARK  158  A    between atoms: _389  and  _391
REMARK  159  A    between atoms: _391  and  _392
REMARK  160  A    between atoms: _391  and  _394
REMARK  161  A    between atoms: _394  and  _395
REMARK  162  A    between atoms: _395  and  _396
REMARK  163  A    between atoms: _396  and  _397
REMARK  164  A    between atoms: _397  and  _398
REMARK  165  A    between atoms: _402  and  _404
REMARK  166  A    between atoms: _404  and  _405
REMARK  167  A    between atoms: _404  and  _407
REMARK  168  A    between atoms: _407  and  _408
REMARK  169  A    between atoms: _408  and  _409
REMARK  170  A    between atoms: _414  and  _416
REMARK  171  A    between atoms: _416  and  _417
REMARK  172  A    between atoms: _416  and  _419
REMARK  173  A    between atoms: _419  and  _420
REMARK  174  A    between atoms: _423  and  _425
REMARK  175  A    between atoms: _425  and  _426
REMARK  176  A    between atoms: _425  and  _428
REMARK  177  A    between atoms: _428  and  _429
REMARK  178  A    between atoms: _433  and  _434
REMARK  179  A    between atoms: _439  and  _441
REMARK  180  A    between atoms: _441  and  _442
REMARK  181  A    between atoms: _441  and  _444
REMARK  182  A    between atoms: _444  and  _445
REMARK  183  A    between atoms: _447  and  _449
REMARK  184  A    between atoms: _449  and  _450
REMARK  185  A    between atoms: _449  and  _452
REMARK  186  A    between atoms: _454  and  _456
REMARK  187  A    between atoms: _456  and  _457
REMARK  188  A    between atoms: _460  and  _462
REMARK  189  A    between atoms: _462  and  _463
REMARK  190  A    between atoms: _462  and  _465
REMARK  191  A    between atoms: _465  and  _466
REMARK  192  A    between atoms: _469  and  _471
REMARK  193  A    between atoms: _471  and  _472
REMARK  194  A    between atoms: _471  and  _474
REMARK  195  A    between atoms: _474  and  _475
REMARK  196  A    between atoms: _477  and  _479
REMARK  197  A    between atoms: _479  and  _480
REMARK  198  A    between atoms: _482  and  _484
REMARK  199  A    between atoms: _484  and  _485
REMARK  200  A    between atoms: _484  and  _487
REMARK  201  A    between atoms: _487  and  _488
REMARK  202  A    between atoms: _491  and  _493
REMARK  203  A    between atoms: _493  and  _494
REMARK  204  A    between atoms: _493  and  _496
REMARK  205  A    between atoms: _496  and  _497
REMARK  206  A    between atoms: _500  and  _502
REMARK  207  A    between atoms: _502  and  _503
REMARK  208  A    between atoms: _502  and  _505
REMARK  209  A    between atoms: _505  and  _506
REMARK                            x       y       z     vdW  Elec       q    Type
REMARK                         _______ _______ _______ _____ _____    ______ ____
ROOT
ATOM      1  O   HOH     1       3.997  16.333  52.087  0.00  0.00    +0.000 OA
ENDROOT
TORSDOF 0
REMARK  Name = ../refined-set-2016/4kax/4kax_pocket.pdb
REMARK  209 active torsions:
REMARK  status: ('A' for Active; 'I' for Inactive)
REMARK    1  A    between atoms: _1  and  _3
REMARK    2  A    between atoms: _3  and  _4
REMARK    3  A    between atoms: _3  and  _6
REMARK    4  A    between atoms: _6  and  _7
REMARK    5  A    between atoms: _7  and  _8
REMARK    6  A    between atoms: _10  and  _12
REMARK    7  A    between atoms: _12  and  _13
REMARK    8  A    between atoms: _12  and  _15
REMARK    9  A    between atoms: _15  and  _16
REMARK   10  A    between atoms: _19  and  _21
REMARK   11  A    between atoms: _21  and  _22
REMARK   12  A    between atoms: _24  and  _26
REMARK   13  A    between atoms: _26  and  _27
REMARK   14  A    between atoms: _26  and  _29
REMARK   15  A    between atoms: _29  and  _30
REMARK   16  A    between atoms: _33  and  _35
REMARK   17  A    between atoms: _35  and  _36
REMARK   18  A    between atoms: _35  and  _38
REMARK   19  A    between atoms: _38  and  _39
REMARK   20  A    between atoms: _42  and  _44
REMARK   21  A    between atoms: _44  and  _45
REMARK   22  A    between atoms: _48  and  _50
REMARK   23  A    between atoms: _50  and  _51
REMARK   24  A    between atoms: _54  and  _56
REMARK   25  A    between atoms: _56  and  _57
REMARK   26  A    between atoms: _59  and  _61
REMARK   27  A    between atoms: _61  and  _62
REMARK   28  A    between atoms: _61  and  _64
REMARK   29  A    between atoms: _64  and  _65
REMARK   30  A    between atoms: _65  and  _66
REMARK   31  A    between atoms: _66  and  _67
REMARK   32  A    between atoms: _67  and  _68
REMARK   33  A    between atoms: _72  and  _74
REMARK   34  A    between atoms: _74  and  _75
REMARK   35  A    between atoms: _74  and  _77
REMARK   36  A    between atoms: _77  and  _78
REMARK   37  A    between atoms: _81  and  _83
REMARK   38  A    between atoms: _83  and  _84
REMARK   39  A    between atoms: _83  and  _86
REMARK   40  A    between atoms: _86  and  _87
REMARK   41  A    between atoms: _90  and  _92
REMARK   42  A    between atoms: _92  and  _93
REMARK   43  A    between atoms: _92  and  _95
REMARK   44  A    between atoms: _95  and  _96
REMARK   45  A    between atoms: _99  and  _101
REMARK   46  A    between atoms: _101  and  _102
REMARK   47  A    between atoms: _101  and  _104
REMARK   48  A    between atoms: _104  and  _105
REMARK   49  A    between atoms: _108  and  _110
REMARK   50  A    between atoms: _110  and  _111
REMARK   51  A    between atoms: _110  and  _113
REMARK   52  A    between atoms: _113  and  _114
REMARK   53  A    between atoms: _119  and  _120
REMARK   54  A    between atoms: _122  and  _124
REMARK   55  A    between atoms: _124  and  _125
REMARK   56  A    between atoms: _124  and  _127
REMARK   57  A    between atoms: _127  and  _128
REMARK   58  A    between atoms: _128  and  _129
REMARK   59  A    between atoms: _129  and  _130
REMARK   60  A    between atoms: _130  and  _131
REMARK   61  A    between atoms: _135  and  _137
REMARK   62  A    between atoms: _137  and  _138
REMARK   63  A    between atoms: _137  and  _140
REMARK   64  A    between atoms: _140  and  _141
REMARK   65  A    between atoms: _143  and  _145
REMARK   66  A    between atoms: _145  and  _146
REMARK   67  A    between atoms: _145  and  _148
REMARK   68  A    between atoms: _151  and  _153
REMARK   69  A    between atoms: _153  and  _154
REMARK   70  A    between atoms: _153  and  _156
REMARK   71  A    between atoms: _156  and  _157
REMARK   72  A    between atoms: _160  and  _162
REMARK   73  A    between atoms: _162  and  _163
REMARK   74  A    between atoms: _162  and  _165
REMARK   75  A    between atoms: _165  and  _166
REMARK   76  A    between atoms: _169  and  _171
REMARK   77  A    between atoms: _171  and  _172
REMARK   78  A    between atoms: _171  and  _174
REMARK   79  A    between atoms: _174  and  _175
REMARK   80  A    between atoms: _179  and  _180
REMARK   81  A    between atoms: _185  and  _187
REMARK   82  A    between atoms: _187  and  _188
REMARK   83  A    between atoms: _187  and  _190
REMARK   84  A    between atoms: _190  and  _191
REMARK   85  A    between atoms: _194  and  _196
REMARK   86  A    between atoms: _196  and  _197
REMARK   87  A    between atoms: _196  and  _199
REMARK   88  A    between atoms: _202  and  _204
REMARK   89  A    between atoms: _204  and  _205
REMARK   90  A    between atoms: _207  and  _209
REMARK   91  A    between atoms: _209  and  _210
REMARK   92  A    between atoms: _209  and  _212
REMARK   93  A    between atoms: _212  and  _213
REMARK   94  A    between atoms: _219  and  _221
REMARK   95  A    between atoms: _221  and  _222
REMARK   96  A    between atoms: _221  and  _224
REMARK   97  A    between atoms: _224  and  _225
REMARK   98  A    between atoms: _230  and  _232
REMARK   99  A    between atoms: _232  and  _233
REMARK  100  A    between atoms: _232  and  _235
REMARK  101  A    between atoms: _235  and  _236
REMARK  102  A    between atoms: _239  and  _241
REMARK  103  A    between atoms: _241  and  _242
REMARK  104  A    between atoms: _241  and  _244
REMARK  105  A    between atoms: _247  and  _249
REMARK  106  A    between atoms: _249  and  _250
REMARK  107  A    between atoms: _252  and  _254
REMARK  108  A    between atoms: _254  and  _255
REMARK  109  A    between atoms: _257  and  _259
REMARK  110  A    between atoms: _259  and  _260
REMARK  111  A    between atoms: _259  and  _262
REMARK  112  A    between atoms: _262  and  _263
REMARK  113  A    between atoms: _266  and  _268
REMARK  114  A    between atoms: _268  and  _269
REMARK  115  A    between atoms: _268  and  _271
REMARK  116  A    between atoms: _271  and  _272
REMARK  117  A    between atoms: _275  and  _277
REMARK  118  A    between atoms: _277  and  _278
REMARK  119  A    between atoms: _277  and  _280
REMARK  120  A    between atoms: _280  and  _281
REMARK  121  A    between atoms: _284  and  _286
REMARK  122  A    between atoms: _286  and  _287
REMARK  123  A    between atoms: _286  and  _289
REMARK  124  A    between atoms: _289  and  _290
REMARK  125  A    between atoms: _290  and  _291
REMARK  126  A    between atoms: _291  and  _292
REMARK  127  A    between atoms: _301  and  _303
REMARK  128  A    between atoms: _303  and  _304
REMARK  129  A    between atoms: _303  and  _306
REMARK  130  A    between atoms: _306  and  _307
REMARK  131  A    between atoms: _317  and  _319
REMARK  132  A    between atoms: _319  and  _320
REMARK  133  A    between atoms: _319  and  _322
REMARK  134  A    between atoms: _325  and  _327
REMARK  135  A    between atoms: _327  and  _328
REMARK  136  A    between atoms: _327  and  _330
REMARK  137  A    between atoms: _333  and  _335
REMARK  138  A    between atoms: _335  and  _336
REMARK  139  A    between atoms: _335  and  _338
REMARK  140  A    between atoms: _338  and  _339
REMARK  141  A    between atoms: _342  and  _344
REMARK  142  A    between atoms: _344  and  _345
REMARK  143  A    between atoms: _344  and  _347
REMARK  144  A    between atoms: _349  and  _351
REMARK  145  A    between atoms: _351  and  _352
REMARK  146  A    between atoms: _355  and  _357
REMARK  147  A    between atoms: _357  and  _358
REMARK  148  A    between atoms: _357  and  _360
REMARK  149  A    between atoms: _360  and  _361
REMARK  150  A    between atoms: _361  and  _362
REMARK  151  A    between atoms: _362  and  _363
REMARK  152  A    between atoms: _372  and  _374
REMARK  153  A    between atoms: _374  and  _375
REMARK  154  A    between atoms: _378  and  _380
REMARK  155  A    between atoms: _380  and  _381
REMARK  156  A    between atoms: _380  and  _383
REMARK  157  A    between atoms: _383  and  _384
REMARK  158  A    between atoms: _389  and  _391
REMARK  159  A    between atoms: _391  and  _392
REMARK  160  A    between atoms: _391  and  _394
REMARK  161  A    between atoms: _394  and  _395
REMARK  162  A    between atoms: _395  and  _396
REMARK  163  A    between atoms: _396  and  _397
REMARK  164  A    between atoms: _397  and  _398
REMARK  165  A    between atoms: _402  and  _404
REMARK  166  A    between atoms: _404  and  _405
REMARK  167  A    between atoms: _404  and  _407
REMARK  168  A    between atoms: _407  and  _408
REMARK  169  A    between atoms: _408  and  _409
REMARK  170  A    between atoms: _414  and  _416
REMARK  171  A    between atoms: _416  and  _417
REMARK  172  A    between atoms: _416  and  _419
REMARK  173  A    between atoms: _419  and  _420
REMARK  174  A    between atoms: _423  and  _425
REMARK  175  A    between atoms: _425  and  _426
REMARK  176  A    between atoms: _425  and  _428
REMARK  177  A    between atoms: _428  and  _429
REMARK  178  A    between atoms: _433  and  _434
REMARK  179  A    between atoms: _439  and  _441
REMARK  180  A    between atoms: _441  and  _442
REMARK  181  A    between atoms: _441  and  _444
REMARK  182  A    between atoms: _444  and  _445
REMARK  183  A    between atoms: _447  and  _449
REMARK  184  A    between atoms: _449  and  _450
REMARK  185  A    between atoms: _449  and  _452
REMARK  186  A    between atoms: _454  and  _456
REMARK  187  A    between atoms: _456  and  _457
REMARK  188  A    between atoms: _460  and  _462
REMARK  189  A    between atoms: _462  and  _463
REMARK  190  A    between atoms: _462  and  _465
REMARK  191  A    between atoms: _465  and  _466
REMARK  192  A    between atoms: _469  and  _471
REMARK  193  A    between atoms: _471  and  _472
REMARK  194  A    between atoms: _471  and  _474
REMARK  195  A    between atoms: _474  and  _475
REMARK  196  A    between atoms: _477  and  _479
REMARK  197  A    between atoms: _479  and  _480
REMARK  198  A    between atoms: _482  and  _484
REMARK  199  A    between atoms: _484  and  _485
REMARK  200  A    between atoms: _484  and  _487
REMARK  201  A    between atoms: _487  and  _488
REMARK  202  A    between atoms: _491  and  _493
REMARK  203  A    between atoms: _493  and  _494
REMARK  204  A    between atoms: _493  and  _496
REMARK  205  A    between atoms: _496  and  _497
REMARK  206  A    between atoms: _500  and  _502
REMARK  207  A    between atoms: _502  and  _503
REMARK  208  A    between atoms: _502  and  _505
REMARK  209  A    between atoms: _505  and  _506
REMARK                            x       y       z     vdW  Elec       q    Type
REMARK                         _______ _______ _______ _____ _____    ______ ____
ROOT
ATOM      1  O   HOH     1      -7.588  12.337  57.520  0.00  0.00    +0.000 OA
ENDROOT
TORSDOF 0
REMARK  Name = ../refined-set-2016/4kax/4kax_pocket.pdb
REMARK  209 active torsions:
REMARK  status: ('A' for Active; 'I' for Inactive)
REMARK    1  A    between atoms: _1  and  _3
REMARK    2  A    between atoms: _3  and  _4
REMARK    3  A    between atoms: _3  and  _6
REMARK    4  A    between atoms: _6  and  _7
REMARK    5  A    between atoms: _7  and  _8
REMARK    6  A    between atoms: _10  and  _12
REMARK    7  A    between atoms: _12  and  _13
REMARK    8  A    between atoms: _12  and  _15
REMARK    9  A    between atoms: _15  and  _16
REMARK   10  A    between atoms: _19  and  _21
REMARK   11  A    between atoms: _21  and  _22
REMARK   12  A    between atoms: _24  and  _26
REMARK   13  A    between atoms: _26  and  _27
REMARK   14  A    between atoms: _26  and  _29
REMARK   15  A    between atoms: _29  and  _30
REMARK   16  A    between atoms: _33  and  _35
REMARK   17  A    between atoms: _35  and  _36
REMARK   18  A    between atoms: _35  and  _38
REMARK   19  A    between atoms: _38  and  _39
REMARK   20  A    between atoms: _42  and  _44
REMARK   21  A    between atoms: _44  and  _45
REMARK   22  A    between atoms: _48  and  _50
REMARK   23  A    between atoms: _50  and  _51
REMARK   24  A    between atoms: _54  and  _56
REMARK   25  A    between atoms: _56  and  _57
REMARK   26  A    between atoms: _59  and  _61
REMARK   27  A    between atoms: _61  and  _62
REMARK   28  A    between atoms: _61  and  _64
REMARK   29  A    between atoms: _64  and  _65
REMARK   30  A    between atoms: _65  and  _66
REMARK   31  A    between atoms: _66  and  _67
REMARK   32  A    between atoms: _67  and  _68
REMARK   33  A    between atoms: _72  and  _74
REMARK   34  A    between atoms: _74  and  _75
REMARK   35  A    between atoms: _74  and  _77
REMARK   36  A    between atoms: _77  and  _78
REMARK   37  A    between atoms: _81  and  _83
REMARK   38  A    between atoms: _83  and  _84
REMARK   39  A    between atoms: _83  and  _86
REMARK   40  A    between atoms: _86  and  _87
REMARK   41  A    between atoms: _90  and  _92
REMARK   42  A    between atoms: _92  and  _93
REMARK   43  A    between atoms: _92  and  _95
REMARK   44  A    between atoms: _95  and  _96
REMARK   45  A    between atoms: _99  and  _101
REMARK   46  A    between atoms: _101  and  _102
REMARK   47  A    between atoms: _101  and  _104
REMARK   48  A    between atoms: _104  and  _105
REMARK   49  A    between atoms: _108  and  _110
REMARK   50  A    between atoms: _110  and  _111
REMARK   51  A    between atoms: _110  and  _113
REMARK   52  A    between atoms: _113  and  _114
REMARK   53  A    between atoms: _119  and  _120
REMARK   54  A    between atoms: _122  and  _124
REMARK   55  A    between atoms: _124  and  _125
REMARK   56  A    between atoms: _124  and  _127
REMARK   57  A    between atoms: _127  and  _128
REMARK   58  A    between atoms: _128  and  _129
REMARK   59  A    between atoms: _129  and  _130
REMARK   60  A    between atoms: _130  and  _131
REMARK   61  A    between atoms: _135  and  _137
REMARK   62  A    between atoms: _137  and  _138
REMARK   63  A    between atoms: _137  and  _140
REMARK   64  A    between atoms: _140  and  _141
REMARK   65  A    between atoms: _143  and  _145
REMARK   66  A    between atoms: _145  and  _146
REMARK   67  A    between atoms: _145  and  _148
REMARK   68  A    between atoms: _151  and  _153
REMARK   69  A    between atoms: _153  and  _154
REMARK   70  A    between atoms: _153  and  _156
REMARK   71  A    between atoms: _156  and  _157
REMARK   72  A    between atoms: _160  and  _162
REMARK   73  A    between atoms: _162  and  _163
REMARK   74  A    between atoms: _162  and  _165
REMARK   75  A    between atoms: _165  and  _166
REMARK   76  A    between atoms: _169  and  _171
REMARK   77  A    between atoms: _171  and  _172
REMARK   78  A    between atoms: _171  and  _174
REMARK   79  A    between atoms: _174  and  _175
REMARK   80  A    between atoms: _179  and  _180
REMARK   81  A    between atoms: _185  and  _187
REMARK   82  A    between atoms: _187  and  _188
REMARK   83  A    between atoms: _187  and  _190
REMARK   84  A    between atoms: _190  and  _191
REMARK   85  A    between atoms: _194  and  _196
REMARK   86  A    between atoms: _196  and  _197
REMARK   87  A    between atoms: _196  and  _199
REMARK   88  A    between atoms: _202  and  _204
REMARK   89  A    between atoms: _204  and  _205
REMARK   90  A    between atoms: _207  and  _209
REMARK   91  A    between atoms: _209  and  _210
REMARK   92  A    between atoms: _209  and  _212
REMARK   93  A    between atoms: _212  and  _213
REMARK   94  A    between atoms: _219  and  _221
REMARK   95  A    between atoms: _221  and  _222
REMARK   96  A    between atoms: _221  and  _224
REMARK   97  A    between atoms: _224  and  _225
REMARK   98  A    between atoms: _230  and  _232
REMARK   99  A    between atoms: _232  and  _233
REMARK  100  A    between atoms: _232  and  _235
REMARK  101  A    between atoms: _235  and  _236
REMARK  102  A    between atoms: _239  and  _241
REMARK  103  A    between atoms: _241  and  _242
REMARK  104  A    between atoms: _241  and  _244
REMARK  105  A    between atoms: _247  and  _249
REMARK  106  A    between atoms: _249  and  _250
REMARK  107  A    between atoms: _252  and  _254
REMARK  108  A    between atoms: _254  and  _255
REMARK  109  A    between atoms: _257  and  _259
REMARK  110  A    between atoms: _259  and  _260
REMARK  111  A    between atoms: _259  and  _262
REMARK  112  A    between atoms: _262  and  _263
REMARK  113  A    between atoms: _266  and  _268
REMARK  114  A    between atoms: _268  and  _269
REMARK  115  A    between atoms: _268  and  _271
REMARK  116  A    between atoms: _271  and  _272
REMARK  117  A    between atoms: _275  and  _277
REMARK  118  A    between atoms: _277  and  _278
REMARK  119  A    between atoms: _277  and  _280
REMARK  120  A    between atoms: _280  and  _281
REMARK  121  A    between atoms: _284  and  _286
REMARK  122  A    between atoms: _286  and  _287
REMARK  123  A    between atoms: _286  and  _289
REMARK  124  A    between atoms: _289  and  _290
REMARK  125  A    between atoms: _290  and  _291
REMARK  126  A    between atoms: _291  and  _292
REMARK  127  A    between atoms: _301  and  _303
REMARK  128  A    between atoms: _303  and  _304
REMARK  129  A    between atoms: _303  and  _306
REMARK  130  A    between atoms: _306  and  _307
REMARK  131  A    between atoms: _317  and  _319
REMARK  132  A    between atoms: _319  and  _320
REMARK  133  A    between atoms: _319  and  _322
REMARK  134  A    between atoms: _325  and  _327
REMARK  135  A    between atoms: _327  and  _328
REMARK  136  A    between atoms: _327  and  _330
REMARK  137  A    between atoms: _333  and  _335
REMARK  138  A    between atoms: _335  and  _336
REMARK  139  A    between atoms: _335  and  _338
REMARK  140  A    between atoms: _338  and  _339
REMARK  141  A    between atoms: _342  and  _344
REMARK  142  A    between atoms: _344  and  _345
REMARK  143  A    between atoms: _344  and  _347
REMARK  144  A    between atoms: _349  and  _351
REMARK  145  A    between atoms: _351  and  _352
REMARK  146  A    between atoms: _355  and  _357
REMARK  147  A    between atoms: _357  and  _358
REMARK  148  A    between atoms: _357  and  _360
REMARK  149  A    between atoms: _360  and  _361
REMARK  150  A    between atoms: _361  and  _362
REMARK  151  A    between atoms: _362  and  _363
REMARK  152  A    between atoms: _372  and  _374
REMARK  153  A    between atoms: _374  and  _375
REMARK  154  A    between atoms: _378  and  _380
REMARK  155  A    between atoms: _380  and  _381
REMARK  156  A    between atoms: _380  and  _383
REMARK  157  A    between atoms: _383  and  _384
REMARK  158  A    between atoms: _389  and  _391
REMARK  159  A    between atoms: _391  and  _392
REMARK  160  A    between atoms: _391  and  _394
REMARK  161  A    between atoms: _394  and  _395
REMARK  162  A    between atoms: _395  and  _396
REMARK  163  A    between atoms: _396  and  _397
REMARK  164  A    between atoms: _397  and  _398
REMARK  165  A    between atoms: _402  and  _404
REMARK  166  A    between atoms: _404  and  _405
REMARK  167  A    between atoms: _404  and  _407
REMARK  168  A    between atoms: _407  and  _408
REMARK  169  A    between atoms: _408  and  _409
REMARK  170  A    between atoms: _414  and  _416
REMARK  171  A    between atoms: _416  and  _417
REMARK  172  A    between atoms: _416  and  _419
REMARK  173  A    between atoms: _419  and  _420
REMARK  174  A    between atoms: _423  and  _425
REMARK  175  A    between atoms: _425  and  _426
REMARK  176  A    between atoms: _425  and  _428
REMARK  177  A    between atoms: _428  and  _429
REMARK  178  A    between atoms: _433  and  _434
REMARK  179  A    between atoms: _439  and  _441
REMARK  180  A    between atoms: _441  and  _442
REMARK  181  A    between atoms: _441  and  _444
REMARK  182  A    between atoms: _444  and  _445
REMARK  183  A    between atoms: _447  and  _449
REMARK  184  A    between atoms: _449  and  _450
REMARK  185  A    between atoms: _449  and  _452
REMARK  186  A    between atoms: _454  and  _456
REMARK  187  A    between atoms: _456  and  _457
REMARK  188  A    between atoms: _460  and  _462
REMARK  189  A    between atoms: _462  and  _463
REMARK  190  A    between atoms: _462  and  _465
REMARK  191  A    between atoms: _465  and  _466
REMARK  192  A    between atoms: _469  and  _471
REMARK  193  A    between atoms: _471  and  _472
REMARK  194  A    between atoms: _471  and  _474
REMARK  195  A    between atoms: _474  and  _475
REMARK  196  A    between atoms: _477  and  _479
REMARK  197  A    between atoms: _479  and  _480
REMARK  198  A    between atoms: _482  and  _484
REMARK  199  A    between atoms: _484  and  _485
REMARK  200  A    between atoms: _484  and  _487
REMARK  201  A    between atoms: _487  and  _488
REMARK  202  A    between atoms: _491  and  _493
REMARK  203  A    between atoms: _493  and  _494
REMARK  204  A    between atoms: _493  and  _496
REMARK  205  A    between atoms: _496  and  _497
REMARK  206  A    between atoms: _500  and  _502
REMARK  207  A    between atoms: _502  and  _503
REMARK  208  A    between atoms: _502  and  _505
REMARK  209  A    between atoms: _505  and  _506
REMARK                            x       y       z     vdW  Elec       q    Type
REMARK                         _______ _______ _______ _____ _____    ______ ____
ROOT
ATOM      1  O   HOH     1       4.680  14.254  45.494  0.00  0.00    +0.000 OA
ENDROOT
TORSDOF 0
REMARK  Name = ../refined-set-2016/4kax/4kax_pocket.pdb
REMARK  209 active torsions:
REMARK  status: ('A' for Active; 'I' for Inactive)
REMARK    1  A    between atoms: _1  and  _3
REMARK    2  A    between atoms: _3  and  _4
REMARK    3  A    between atoms: _3  and  _6
REMARK    4  A    between atoms: _6  and  _7
REMARK    5  A    between atoms: _7  and  _8
REMARK    6  A    between atoms: _10  and  _12
REMARK    7  A    between atoms: _12  and  _13
REMARK    8  A    between atoms: _12  and  _15
REMARK    9  A    between atoms: _15  and  _16
REMARK   10  A    between atoms: _19  and  _21
REMARK   11  A    between atoms: _21  and  _22
REMARK   12  A    between atoms: _24  and  _26
REMARK   13  A    between atoms: _26  and  _27
REMARK   14  A    between atoms: _26  and  _29
REMARK   15  A    between atoms: _29  and  _30
REMARK   16  A    between atoms: _33  and  _35
REMARK   17  A    between atoms: _35  and  _36
REMARK   18  A    between atoms: _35  and  _38
REMARK   19  A    between atoms: _38  and  _39
REMARK   20  A    between atoms: _42  and  _44
REMARK   21  A    between atoms: _44  and  _45
REMARK   22  A    between atoms: _48  and  _50
REMARK   23  A    between atoms: _50  and  _51
REMARK   24  A    between atoms: _54  and  _56
REMARK   25  A    between atoms: _56  and  _57
REMARK   26  A    between atoms: _59  and  _61
REMARK   27  A    between atoms: _61  and  _62
REMARK   28  A    between atoms: _61  and  _64
REMARK   29  A    between atoms: _64  and  _65
REMARK   30  A    between atoms: _65  and  _66
REMARK   31  A    between atoms: _66  and  _67
REMARK   32  A    between atoms: _67  and  _68
REMARK   33  A    between atoms: _72  and  _74
REMARK   34  A    between atoms: _74  and  _75
REMARK   35  A    between atoms: _74  and  _77
REMARK   36  A    between atoms: _77  and  _78
REMARK   37  A    between atoms: _81  and  _83
REMARK   38  A    between atoms: _83  and  _84
REMARK   39  A    between atoms: _83  and  _86
REMARK   40  A    between atoms: _86  and  _87
REMARK   41  A    between atoms: _90  and  _92
REMARK   42  A    between atoms: _92  and  _93
REMARK   43  A    between atoms: _92  and  _95
REMARK   44  A    between atoms: _95  and  _96
REMARK   45  A    between atoms: _99  and  _101
REMARK   46  A    between atoms: _101  and  _102
REMARK   47  A    between atoms: _101  and  _104
REMARK   48  A    between atoms: _104  and  _105
REMARK   49  A    between atoms: _108  and  _110
REMARK   50  A    between atoms: _110  and  _111
REMARK   51  A    between atoms: _110  and  _113
REMARK   52  A    between atoms: _113  and  _114
REMARK   53  A    between atoms: _119  and  _120
REMARK   54  A    between atoms: _122  and  _124
REMARK   55  A    between atoms: _124  and  _125
REMARK   56  A    between atoms: _124  and  _127
REMARK   57  A    between atoms: _127  and  _128
REMARK   58  A    between atoms: _128  and  _129
REMARK   59  A    between atoms: _129  and  _130
REMARK   60  A    between atoms: _130  and  _131
REMARK   61  A    between atoms: _135  and  _137
REMARK   62  A    between atoms: _137  and  _138
REMARK   63  A    between atoms: _137  and  _140
REMARK   64  A    between atoms: _140  and  _141
REMARK   65  A    between atoms: _143  and  _145
REMARK   66  A    between atoms: _145  and  _146
REMARK   67  A    between atoms: _145  and  _148
REMARK   68  A    between atoms: _151  and  _153
REMARK   69  A    between atoms: _153  and  _154
REMARK   70  A    between atoms: _153  and  _156
REMARK   71  A    between atoms: _156  and  _157
REMARK   72  A    between atoms: _160  and  _162
REMARK   73  A    between atoms: _162  and  _163
REMARK   74  A    between atoms: _162  and  _165
REMARK   75  A    between atoms: _165  and  _166
REMARK   76  A    between atoms: _169  and  _171
REMARK   77  A    between atoms: _171  and  _172
REMARK   78  A    between atoms: _171  and  _174
REMARK   79  A    between atoms: _174  and  _175
REMARK   80  A    between atoms: _179  and  _180
REMARK   81  A    between atoms: _185  and  _187
REMARK   82  A    between atoms: _187  and  _188
REMARK   83  A    between atoms: _187  and  _190
REMARK   84  A    between atoms: _190  and  _191
REMARK   85  A    between atoms: _194  and  _196
REMARK   86  A    between atoms: _196  and  _197
REMARK   87  A    between atoms: _196  and  _199
REMARK   88  A    between atoms: _202  and  _204
REMARK   89  A    between atoms: _204  and  _205
REMARK   90  A    between atoms: _207  and  _209
REMARK   91  A    between atoms: _209  and  _210
REMARK   92  A    between atoms: _209  and  _212
REMARK   93  A    between atoms: _212  and  _213
REMARK   94  A    between atoms: _219  and  _221
REMARK   95  A    between atoms: _221  and  _222
REMARK   96  A    between atoms: _221  and  _224
REMARK   97  A    between atoms: _224  and  _225
REMARK   98  A    between atoms: _230  and  _232
REMARK   99  A    between atoms: _232  and  _233
REMARK  100  A    between atoms: _232  and  _235
REMARK  101  A    between atoms: _235  and  _236
REMARK  102  A    between atoms: _239  and  _241
REMARK  103  A    between atoms: _241  and  _242
REMARK  104  A    between atoms: _241  and  _244
REMARK  105  A    between atoms: _247  and  _249
REMARK  106  A    between atoms: _249  and  _250
REMARK  107  A    between atoms: _252  and  _254
REMARK  108  A    between atoms: _254  and  _255
REMARK  109  A    between atoms: _257  and  _259
REMARK  110  A    between atoms: _259  and  _260
REMARK  111  A    between atoms: _259  and  _262
REMARK  112  A    between atoms: _262  and  _263
REMARK  113  A    between atoms: _266  and  _268
REMARK  114  A    between atoms: _268  and  _269
REMARK  115  A    between atoms: _268  and  _271
REMARK  116  A    between atoms: _271  and  _272
REMARK  117  A    between atoms: _275  and  _277
REMARK  118  A    between atoms: _277  and  _278
REMARK  119  A    between atoms: _277  and  _280
REMARK  120  A    between atoms: _280  and  _281
REMARK  121  A    between atoms: _284  and  _286
REMARK  122  A    between atoms: _286  and  _287
REMARK  123  A    between atoms: _286  and  _289
REMARK  124  A    between atoms: _289  and  _290
REMARK  125  A    between atoms: _290  and  _291
REMARK  126  A    between atoms: _291  and  _292
REMARK  127  A    between atoms: _301  and  _303
REMARK  128  A    between atoms: _303  and  _304
REMARK  129  A    between atoms: _303  and  _306
REMARK  130  A    between atoms: _306  and  _307
REMARK  131  A    between atoms: _317  and  _319
REMARK  132  A    between atoms: _319  and  _320
REMARK  133  A    between atoms: _319  and  _322
REMARK  134  A    between atoms: _325  and  _327
REMARK  135  A    between atoms: _327  and  _328
REMARK  136  A    between atoms: _327  and  _330
REMARK  137  A    between atoms: _333  and  _335
REMARK  138  A    between atoms: _335  and  _336
REMARK  139  A    between atoms: _335  and  _338
REMARK  140  A    between atoms: _338  and  _339
REMARK  141  A    between atoms: _342  and  _344
REMARK  142  A    between atoms: _344  and  _345
REMARK  143  A    between atoms: _344  and  _347
REMARK  144  A    between atoms: _349  and  _351
REMARK  145  A    between atoms: _351  and  _352
REMARK  146  A    between atoms: _355  and  _357
REMARK  147  A    between atoms: _357  and  _358
REMARK  148  A    between atoms: _357  and  _360
REMARK  149  A    between atoms: _360  and  _361
REMARK  150  A    between atoms: _361  and  _362
REMARK  151  A    between atoms: _362  and  _363
REMARK  152  A    between atoms: _372  and  _374
REMARK  153  A    between atoms: _374  and  _375
REMARK  154  A    between atoms: _378  and  _380
REMARK  155  A    between atoms: _380  and  _381
REMARK  156  A    between atoms: _380  and  _383
REMARK  157  A    between atoms: _383  and  _384
REMARK  158  A    between atoms: _389  and  _391
REMARK  159  A    between atoms: _391  and  _392
REMARK  160  A    between atoms: _391  and  _394
REMARK  161  A    between atoms: _394  and  _395
REMARK  162  A    between atoms: _395  and  _396
REMARK  163  A    between atoms: _396  and  _397
REMARK  164  A    between atoms: _397  and  _398
REMARK  165  A    between atoms: _402  and  _404
REMARK  166  A    between atoms: _404  and  _405
REMARK  167  A    between atoms: _404  and  _407
REMARK  168  A    between atoms: _407  and  _408
REMARK  169  A    between atoms: _408  and  _409
REMARK  170  A    between atoms: _414  and  _416
REMARK  171  A    between atoms: _416  and  _417
REMARK  172  A    between atoms: _416  and  _419
REMARK  173  A    between atoms: _419  and  _420
REMARK  174  A    between atoms: _423  and  _425
REMARK  175  A    between atoms: _425  and  _426
REMARK  176  A    between atoms: _425  and  _428
REMARK  177  A    between atoms: _428  and  _429
REMARK  178  A    between atoms: _433  and  _434
REMARK  179  A    between atoms: _439  and  _441
REMARK  180  A    between atoms: _441  and  _442
REMARK  181  A    between atoms: _441  and  _444
REMARK  182  A    between atoms: _444  and  _445
REMARK  183  A    between atoms: _447  and  _449
REMARK  184  A    between atoms: _449  and  _450
REMARK  185  A    between atoms: _449  and  _452
REMARK  186  A    between atoms: _454  and  _456
REMARK  187  A    between atoms: _456  and  _457
REMARK  188  A    between atoms: _460  and  _462
REMARK  189  A    between atoms: _462  and  _463
REMARK  190  A    between atoms: _462  and  _465
REMARK  191  A    between atoms: _465  and  _466
REMARK  192  A    between atoms: _469  and  _471
REMARK  193  A    between atoms: _471  and  _472
REMARK  194  A    between atoms: _471  and  _474
REMARK  195  A    between atoms: _474  and  _475
REMARK  196  A    between atoms: _477  and  _479
REMARK  197  A    between atoms: _479  and  _480
REMARK  198  A    between atoms: _482  and  _484
REMARK  199  A    between atoms: _484  and  _485
REMARK  200  A    between atoms: _484  and  _487
REMARK  201  A    between atoms: _487  and  _488
REMARK  202  A    between atoms: _491  and  _493
REMARK  203  A    between atoms: _493  and  _494
REMARK  204  A    between atoms: _493  and  _496
REMARK  205  A    between atoms: _496  and  _497
REMARK  206  A    between atoms: _500  and  _502
REMARK  207  A    between atoms: _502  and  _503
REMARK  208  A    between atoms: _502  and  _505
REMARK  209  A    between atoms: _505  and  _506
REMARK                            x       y       z     vdW  Elec       q    Type
REMARK                         _______ _______ _______ _____ _____    ______ ____
ROOT
ATOM      1  O   HOH     1      -2.513  14.142  55.153  0.00  0.00    +0.000 OA
ENDROOT
TORSDOF 0
REMARK  Name = ../refined-set-2016/4kax/4kax_pocket.pdb
REMARK  209 active torsions:
REMARK  status: ('A' for Active; 'I' for Inactive)
REMARK    1  A    between atoms: _1  and  _3
REMARK    2  A    between atoms: _3  and  _4
REMARK    3  A    between atoms: _3  and  _6
REMARK    4  A    between atoms: _6  and  _7
REMARK    5  A    between atoms: _7  and  _8
REMARK    6  A    between atoms: _10  and  _12
REMARK    7  A    between atoms: _12  and  _13
REMARK    8  A    between atoms: _12  and  _15
REMARK    9  A    between atoms: _15  and  _16
REMARK   10  A    between atoms: _19  and  _21
REMARK   11  A    between atoms: _21  and  _22
REMARK   12  A    between atoms: _24  and  _26
REMARK   13  A    between atoms: _26  and  _27
REMARK   14  A    between atoms: _26  and  _29
REMARK   15  A    between atoms: _29  and  _30
REMARK   16  A    between atoms: _33  and  _35
REMARK   17  A    between atoms: _35  and  _36
REMARK   18  A    between atoms: _35  and  _38
REMARK   19  A    between atoms: _38  and  _39
REMARK   20  A    between atoms: _42  and  _44
REMARK   21  A    between atoms: _44  and  _45
REMARK   22  A    between atoms: _48  and  _50
REMARK   23  A    between atoms: _50  and  _51
REMARK   24  A    between atoms: _54  and  _56
REMARK   25  A    between atoms: _56  and  _57
REMARK   26  A    between atoms: _59  and  _61
REMARK   27  A    between atoms: _61  and  _62
REMARK   28  A    between atoms: _61  and  _64
REMARK   29  A    between atoms: _64  and  _65
REMARK   30  A    between atoms: _65  and  _66
REMARK   31  A    between atoms: _66  and  _67
REMARK   32  A    between atoms: _67  and  _68
REMARK   33  A    between atoms: _72  and  _74
REMARK   34  A    between atoms: _74  and  _75
REMARK   35  A    between atoms: _74  and  _77
REMARK   36  A    between atoms: _77  and  _78
REMARK   37  A    between atoms: _81  and  _83
REMARK   38  A    between atoms: _83  and  _84
REMARK   39  A    between atoms: _83  and  _86
REMARK   40  A    between atoms: _86  and  _87
REMARK   41  A    between atoms: _90  and  _92
REMARK   42  A    between atoms: _92  and  _93
REMARK   43  A    between atoms: _92  and  _95
REMARK   44  A    between atoms: _95  and  _96
REMARK   45  A    between atoms: _99  and  _101
REMARK   46  A    between atoms: _101  and  _102
REMARK   47  A    between atoms: _101  and  _104
REMARK   48  A    between atoms: _104  and  _105
REMARK   49  A    between atoms: _108  and  _110
REMARK   50  A    between atoms: _110  and  _111
REMARK   51  A    between atoms: _110  and  _113
REMARK   52  A    between atoms: _113  and  _114
REMARK   53  A    between atoms: _119  and  _120
REMARK   54  A    between atoms: _122  and  _124
REMARK   55  A    between atoms: _124  and  _125
REMARK   56  A    between atoms: _124  and  _127
REMARK   57  A    between atoms: _127  and  _128
REMARK   58  A    between atoms: _128  and  _129
REMARK   59  A    between atoms: _129  and  _130
REMARK   60  A    between atoms: _130  and  _131
REMARK   61  A    between atoms: _135  and  _137
REMARK   62  A    between atoms: _137  and  _138
REMARK   63  A    between atoms: _137  and  _140
REMARK   64  A    between atoms: _140  and  _141
REMARK   65  A    between atoms: _143  and  _145
REMARK   66  A    between atoms: _145  and  _146
REMARK   67  A    between atoms: _145  and  _148
REMARK   68  A    between atoms: _151  and  _153
REMARK   69  A    between atoms: _153  and  _154
REMARK   70  A    between atoms: _153  and  _156
REMARK   71  A    between atoms: _156  and  _157
REMARK   72  A    between atoms: _160  and  _162
REMARK   73  A    between atoms: _162  and  _163
REMARK   74  A    between atoms: _162  and  _165
REMARK   75  A    between atoms: _165  and  _166
REMARK   76  A    between atoms: _169  and  _171
REMARK   77  A    between atoms: _171  and  _172
REMARK   78  A    between atoms: _171  and  _174
REMARK   79  A    between atoms: _174  and  _175
REMARK   80  A    between atoms: _179  and  _180
REMARK   81  A    between atoms: _185  and  _187
REMARK   82  A    between atoms: _187  and  _188
REMARK   83  A    between atoms: _187  and  _190
REMARK   84  A    between atoms: _190  and  _191
REMARK   85  A    between atoms: _194  and  _196
REMARK   86  A    between atoms: _196  and  _197
REMARK   87  A    between atoms: _196  and  _199
REMARK   88  A    between atoms: _202  and  _204
REMARK   89  A    between atoms: _204  and  _205
REMARK   90  A    between atoms: _207  and  _209
REMARK   91  A    between atoms: _209  and  _210
REMARK   92  A    between atoms: _209  and  _212
REMARK   93  A    between atoms: _212  and  _213
REMARK   94  A    between atoms: _219  and  _221
REMARK   95  A    between atoms: _221  and  _222
REMARK   96  A    between atoms: _221  and  _224
REMARK   97  A    between atoms: _224  and  _225
REMARK   98  A    between atoms: _230  and  _232
REMARK   99  A    between atoms: _232  and  _233
REMARK  100  A    between atoms: _232  and  _235
REMARK  101  A    between atoms: _235  and  _236
REMARK  102  A    between atoms: _239  and  _241
REMARK  103  A    between atoms: _241  and  _242
REMARK  104  A    between atoms: _241  and  _244
REMARK  105  A    between atoms: _247  and  _249
REMARK  106  A    between atoms: _249  and  _250
REMARK  107  A    between atoms: _252  and  _254
REMARK  108  A    between atoms: _254  and  _255
REMARK  109  A    between atoms: _257  and  _259
REMARK  110  A    between atoms: _259  and  _260
REMARK  111  A    between atoms: _259  and  _262
REMARK  112  A    between atoms: _262  and  _263
REMARK  113  A    between atoms: _266  and  _268
REMARK  114  A    between atoms: _268  and  _269
REMARK  115  A    between atoms: _268  and  _271
REMARK  116  A    between atoms: _271  and  _272
REMARK  117  A    between atoms: _275  and  _277
REMARK  118  A    between atoms: _277  and  _278
REMARK  119  A    between atoms: _277  and  _280
REMARK  120  A    between atoms: _280  and  _281
REMARK  121  A    between atoms: _284  and  _286
REMARK  122  A    between atoms: _286  and  _287
REMARK  123  A    between atoms: _286  and  _289
REMARK  124  A    between atoms: _289  and  _290
REMARK  125  A    between atoms: _290  and  _291
REMARK  126  A    between atoms: _291  and  _292
REMARK  127  A    between atoms: _301  and  _303
REMARK  128  A    between atoms: _303  and  _304
REMARK  129  A    between atoms: _303  and  _306
REMARK  130  A    between atoms: _306  and  _307
REMARK  131  A    between atoms: _317  and  _319
REMARK  132  A    between atoms: _319  and  _320
REMARK  133  A    between atoms: _319  and  _322
REMARK  134  A    between atoms: _325  and  _327
REMARK  135  A    between atoms: _327  and  _328
REMARK  136  A    between atoms: _327  and  _330
REMARK  137  A    between atoms: _333  and  _335
REMARK  138  A    between atoms: _335  and  _336
REMARK  139  A    between atoms: _335  and  _338
REMARK  140  A    between atoms: _338  and  _339
REMARK  141  A    between atoms: _342  and  _344
REMARK  142  A    between atoms: _344  and  _345
REMARK  143  A    between atoms: _344  and  _347
REMARK  144  A    between atoms: _349  and  _351
REMARK  145  A    between atoms: _351  and  _352
REMARK  146  A    between atoms: _355  and  _357
REMARK  147  A    between atoms: _357  and  _358
REMARK  148  A    between atoms: _357  and  _360
REMARK  149  A    between atoms: _360  and  _361
REMARK  150  A    between atoms: _361  and  _362
REMARK  151  A    between atoms: _362  and  _363
REMARK  152  A    between atoms: _372  and  _374
REMARK  153  A    between atoms: _374  and  _375
REMARK  154  A    between atoms: _378  and  _380
REMARK  155  A    between atoms: _380  and  _381
REMARK  156  A    between atoms: _380  and  _383
REMARK  157  A    between atoms: _383  and  _384
REMARK  158  A    between atoms: _389  and  _391
REMARK  159  A    between atoms: _391  and  _392
REMARK  160  A    between atoms: _391  and  _394
REMARK  161  A    between atoms: _394  and  _395
REMARK  162  A    between atoms: _395  and  _396
REMARK  163  A    between atoms: _396  and  _397
REMARK  164  A    between atoms: _397  and  _398
REMARK  165  A    between atoms: _402  and  _404
REMARK  166  A    between atoms: _404  and  _405
REMARK  167  A    between atoms: _404  and  _407
REMARK  168  A    between atoms: _407  and  _408
REMARK  169  A    between atoms: _408  and  _409
REMARK  170  A    between atoms: _414  and  _416
REMARK  171  A    between atoms: _416  and  _417
REMARK  172  A    between atoms: _416  and  _419
REMARK  173  A    between atoms: _419  and  _420
REMARK  174  A    between atoms: _423  and  _425
REMARK  175  A    between atoms: _425  and  _426
REMARK  176  A    between atoms: _425  and  _428
REMARK  177  A    between atoms: _428  and  _429
REMARK  178  A    between atoms: _433  and  _434
REMARK  179  A    between atoms: _439  and  _441
REMARK  180  A    between atoms: _441  and  _442
REMARK  181  A    between atoms: _441  and  _444
REMARK  182  A    between atoms: _444  and  _445
REMARK  183  A    between atoms: _447  and  _449
REMARK  184  A    between atoms: _449  and  _450
REMARK  185  A    between atoms: _449  and  _452
REMARK  186  A    between atoms: _454  and  _456
REMARK  187  A    between atoms: _456  and  _457
REMARK  188  A    between atoms: _460  and  _462
REMARK  189  A    between atoms: _462  and  _463
REMARK  190  A    between atoms: _462  and  _465
REMARK  191  A    between atoms: _465  and  _466
REMARK  192  A    between atoms: _469  and  _471
REMARK  193  A    between atoms: _471  and  _472
REMARK  194  A    between atoms: _471  and  _474
REMARK  195  A    between atoms: _474  and  _475
REMARK  196  A    between atoms: _477  and  _479
REMARK  197  A    between atoms: _479  and  _480
REMARK  198  A    between atoms: _482  and  _484
REMARK  199  A    between atoms: _484  and  _485
REMARK  200  A    between atoms: _484  and  _487
REMARK  201  A    between atoms: _487  and  _488
REMARK  202  A    between atoms: _491  and  _493
REMARK  203  A    between atoms: _493  and  _494
REMARK  204  A    between atoms: _493  and  _496
REMARK  205  A    between atoms: _496  and  _497
REMARK  206  A    between atoms: _500  and  _502
REMARK  207  A    between atoms: _502  and  _503
REMARK  208  A    between atoms: _502  and  _505
REMARK  209  A    between atoms: _505  and  _506
REMARK                            x       y       z     vdW  Elec       q    Type
REMARK                         _______ _______ _______ _____ _____    ______ ____
ROOT
ATOM      1  O   HOH     1      -2.699  13.902  58.107  0.00  0.00    +0.000 OA
ENDROOT
TORSDOF 0
REMARK  Name = ../refined-set-2016/4kax/4kax_pocket.pdb
REMARK  209 active torsions:
REMARK  status: ('A' for Active; 'I' for Inactive)
REMARK    1  A    between atoms: _1  and  _3
REMARK    2  A    between atoms: _3  and  _4
REMARK    3  A    between atoms: _3  and  _6
REMARK    4  A    between atoms: _6  and  _7
REMARK    5  A    between atoms: _7  and  _8
REMARK    6  A    between atoms: _10  and  _12
REMARK    7  A    between atoms: _12  and  _13
REMARK    8  A    between atoms: _12  and  _15
REMARK    9  A    between atoms: _15  and  _16
REMARK   10  A    between atoms: _19  and  _21
REMARK   11  A    between atoms: _21  and  _22
REMARK   12  A    between atoms: _24  and  _26
REMARK   13  A    between atoms: _26  and  _27
REMARK   14  A    between atoms: _26  and  _29
REMARK   15  A    between atoms: _29  and  _30
REMARK   16  A    between atoms: _33  and  _35
REMARK   17  A    between atoms: _35  and  _36
REMARK   18  A    between atoms: _35  and  _38
REMARK   19  A    between atoms: _38  and  _39
REMARK   20  A    between atoms: _42  and  _44
REMARK   21  A    between atoms: _44  and  _45
REMARK   22  A    between atoms: _48  and  _50
REMARK   23  A    between atoms: _50  and  _51
REMARK   24  A    between atoms: _54  and  _56
REMARK   25  A    between atoms: _56  and  _57
REMARK   26  A    between atoms: _59  and  _61
REMARK   27  A    between atoms: _61  and  _62
REMARK   28  A    between atoms: _61  and  _64
REMARK   29  A    between atoms: _64  and  _65
REMARK   30  A    between atoms: _65  and  _66
REMARK   31  A    between atoms: _66  and  _67
REMARK   32  A    between atoms: _67  and  _68
REMARK   33  A    between atoms: _72  and  _74
REMARK   34  A    between atoms: _74  and  _75
REMARK   35  A    between atoms: _74  and  _77
REMARK   36  A    between atoms: _77  and  _78
REMARK   37  A    between atoms: _81  and  _83
REMARK   38  A    between atoms: _83  and  _84
REMARK   39  A    between atoms: _83  and  _86
REMARK   40  A    between atoms: _86  and  _87
REMARK   41  A    between atoms: _90  and  _92
REMARK   42  A    between atoms: _92  and  _93
REMARK   43  A    between atoms: _92  and  _95
REMARK   44  A    between atoms: _95  and  _96
REMARK   45  A    between atoms: _99  and  _101
REMARK   46  A    between atoms: _101  and  _102
REMARK   47  A    between atoms: _101  and  _104
REMARK   48  A    between atoms: _104  and  _105
REMARK   49  A    between atoms: _108  and  _110
REMARK   50  A    between atoms: _110  and  _111
REMARK   51  A    between atoms: _110  and  _113
REMARK   52  A    between atoms: _113  and  _114
REMARK   53  A    between atoms: _119  and  _120
REMARK   54  A    between atoms: _122  and  _124
REMARK   55  A    between atoms: _124  and  _125
REMARK   56  A    between atoms: _124  and  _127
REMARK   57  A    between atoms: _127  and  _128
REMARK   58  A    between atoms: _128  and  _129
REMARK   59  A    between atoms: _129  and  _130
REMARK   60  A    between atoms: _130  and  _131
REMARK   61  A    between atoms: _135  and  _137
REMARK   62  A    between atoms: _137  and  _138
REMARK   63  A    between atoms: _137  and  _140
REMARK   64  A    between atoms: _140  and  _141
REMARK   65  A    between atoms: _143  and  _145
REMARK   66  A    between atoms: _145  and  _146
REMARK   67  A    between atoms: _145  and  _148
REMARK   68  A    between atoms: _151  and  _153
REMARK   69  A    between atoms: _153  and  _154
REMARK   70  A    between atoms: _153  and  _156
REMARK   71  A    between atoms: _156  and  _157
REMARK   72  A    between atoms: _160  and  _162
REMARK   73  A    between atoms: _162  and  _163
REMARK   74  A    between atoms: _162  and  _165
REMARK   75  A    between atoms: _165  and  _166
REMARK   76  A    between atoms: _169  and  _171
REMARK   77  A    between atoms: _171  and  _172
REMARK   78  A    between atoms: _171  and  _174
REMARK   79  A    between atoms: _174  and  _175
REMARK   80  A    between atoms: _179  and  _180
REMARK   81  A    between atoms: _185  and  _187
REMARK   82  A    between atoms: _187  and  _188
REMARK   83  A    between atoms: _187  and  _190
REMARK   84  A    between atoms: _190  and  _191
REMARK   85  A    between atoms: _194  and  _196
REMARK   86  A    between atoms: _196  and  _197
REMARK   87  A    between atoms: _196  and  _199
REMARK   88  A    between atoms: _202  and  _204
REMARK   89  A    between atoms: _204  and  _205
REMARK   90  A    between atoms: _207  and  _209
REMARK   91  A    between atoms: _209  and  _210
REMARK   92  A    between atoms: _209  and  _212
REMARK   93  A    between atoms: _212  and  _213
REMARK   94  A    between atoms: _219  and  _221
REMARK   95  A    between atoms: _221  and  _222
REMARK   96  A    between atoms: _221  and  _224
REMARK   97  A    between atoms: _224  and  _225
REMARK   98  A    between atoms: _230  and  _232
REMARK   99  A    between atoms: _232  and  _233
REMARK  100  A    between atoms: _232  and  _235
REMARK  101  A    between atoms: _235  and  _236
REMARK  102  A    between atoms: _239  and  _241
REMARK  103  A    between atoms: _241  and  _242
REMARK  104  A    between atoms: _241  and  _244
REMARK  105  A    between atoms: _247  and  _249
REMARK  106  A    between atoms: _249  and  _250
REMARK  107  A    between atoms: _252  and  _254
REMARK  108  A    between atoms: _254  and  _255
REMARK  109  A    between atoms: _257  and  _259
REMARK  110  A    between atoms: _259  and  _260
REMARK  111  A    between atoms: _259  and  _262
REMARK  112  A    between atoms: _262  and  _263
REMARK  113  A    between atoms: _266  and  _268
REMARK  114  A    between atoms: _268  and  _269
REMARK  115  A    between atoms: _268  and  _271
REMARK  116  A    between atoms: _271  and  _272
REMARK  117  A    between atoms: _275  and  _277
REMARK  118  A    between atoms: _277  and  _278
REMARK  119  A    between atoms: _277  and  _280
REMARK  120  A    between atoms: _280  and  _281
REMARK  121  A    between atoms: _284  and  _286
REMARK  122  A    between atoms: _286  and  _287
REMARK  123  A    between atoms: _286  and  _289
REMARK  124  A    between atoms: _289  and  _290
REMARK  125  A    between atoms: _290  and  _291
REMARK  126  A    between atoms: _291  and  _292
REMARK  127  A    between atoms: _301  and  _303
REMARK  128  A    between atoms: _303  and  _304
REMARK  129  A    between atoms: _303  and  _306
REMARK  130  A    between atoms: _306  and  _307
REMARK  131  A    between atoms: _317  and  _319
REMARK  132  A    between atoms: _319  and  _320
REMARK  133  A    between atoms: _319  and  _322
REMARK  134  A    between atoms: _325  and  _327
REMARK  135  A    between atoms: _327  and  _328
REMARK  136  A    between atoms: _327  and  _330
REMARK  137  A    between atoms: _333  and  _335
REMARK  138  A    between atoms: _335  and  _336
REMARK  139  A    between atoms: _335  and  _338
REMARK  140  A    between atoms: _338  and  _339
REMARK  141  A    between atoms: _342  and  _344
REMARK  142  A    between atoms: _344  and  _345
REMARK  143  A    between atoms: _344  and  _347
REMARK  144  A    between atoms: _349  and  _351
REMARK  145  A    between atoms: _351  and  _352
REMARK  146  A    between atoms: _355  and  _357
REMARK  147  A    between atoms: _357  and  _358
REMARK  148  A    between atoms: _357  and  _360
REMARK  149  A    between atoms: _360  and  _361
REMARK  150  A    between atoms: _361  and  _362
REMARK  151  A    between atoms: _362  and  _363
REMARK  152  A    between atoms: _372  and  _374
REMARK  153  A    between atoms: _374  and  _375
REMARK  154  A    between atoms: _378  and  _380
REMARK  155  A    between atoms: _380  and  _381
REMARK  156  A    between atoms: _380  and  _383
REMARK  157  A    between atoms: _383  and  _384
REMARK  158  A    between atoms: _389  and  _391
REMARK  159  A    between atoms: _391  and  _392
REMARK  160  A    between atoms: _391  and  _394
REMARK  161  A    between atoms: _394  and  _395
REMARK  162  A    between atoms: _395  and  _396
REMARK  163  A    between atoms: _396  and  _397
REMARK  164  A    between atoms: _397  and  _398
REMARK  165  A    between atoms: _402  and  _404
REMARK  166  A    between atoms: _404  and  _405
REMARK  167  A    between atoms: _404  and  _407
REMARK  168  A    between atoms: _407  and  _408
REMARK  169  A    between atoms: _408  and  _409
REMARK  170  A    between atoms: _414  and  _416
REMARK  171  A    between atoms: _416  and  _417
REMARK  172  A    between atoms: _416  and  _419
REMARK  173  A    between atoms: _419  and  _420
REMARK  174  A    between atoms: _423  and  _425
REMARK  175  A    between atoms: _425  and  _426
REMARK  176  A    between atoms: _425  and  _428
REMARK  177  A    between atoms: _428  and  _429
REMARK  178  A    between atoms: _433  and  _434
REMARK  179  A    between atoms: _439  and  _441
REMARK  180  A    between atoms: _441  and  _442
REMARK  181  A    between atoms: _441  and  _444
REMARK  182  A    between atoms: _444  and  _445
REMARK  183  A    between atoms: _447  and  _449
REMARK  184  A    between atoms: _449  and  _450
REMARK  185  A    between atoms: _449  and  _452
REMARK  186  A    between atoms: _454  and  _456
REMARK  187  A    between atoms: _456  and  _457
REMARK  188  A    between atoms: _460  and  _462
REMARK  189  A    between atoms: _462  and  _463
REMARK  190  A    between atoms: _462  and  _465
REMARK  191  A    between atoms: _465  and  _466
REMARK  192  A    between atoms: _469  and  _471
REMARK  193  A    between atoms: _471  and  _472
REMARK  194  A    between atoms: _471  and  _474
REMARK  195  A    between atoms: _474  and  _475
REMARK  196  A    between atoms: _477  and  _479
REMARK  197  A    between atoms: _479  and  _480
REMARK  198  A    between atoms: _482  and  _484
REMARK  199  A    between atoms: _484  and  _485
REMARK  200  A    between atoms: _484  and  _487
REMARK  201  A    between atoms: _487  and  _488
REMARK  202  A    between atoms: _491  and  _493
REMARK  203  A    between atoms: _493  and  _494
REMARK  204  A    between atoms: _493  and  _496
REMARK  205  A    between atoms: _496  and  _497
REMARK  206  A    between atoms: _500  and  _502
REMARK  207  A    between atoms: _502  and  _503
REMARK  208  A    between atoms: _502  and  _505
REMARK  209  A    between atoms: _505  and  _506
REMARK                            x       y       z     vdW  Elec       q    Type
REMARK                         _______ _______ _______ _____ _____    ______ ____
ROOT
ATOM      1  O   HOH     1     -10.927   1.123  65.692  0.00  0.00    +0.000 OA
ENDROOT
TORSDOF 0
REMARK  Name = ../refined-set-2016/4kax/4kax_pocket.pdb
REMARK  209 active torsions:
REMARK  status: ('A' for Active; 'I' for Inactive)
REMARK    1  A    between atoms: _1  and  _3
REMARK    2  A    between atoms: _3  and  _4
REMARK    3  A    between atoms: _3  and  _6
REMARK    4  A    between atoms: _6  and  _7
REMARK    5  A    between atoms: _7  and  _8
REMARK    6  A    between atoms: _10  and  _12
REMARK    7  A    between atoms: _12  and  _13
REMARK    8  A    between atoms: _12  and  _15
REMARK    9  A    between atoms: _15  and  _16
REMARK   10  A    between atoms: _19  and  _21
REMARK   11  A    between atoms: _21  and  _22
REMARK   12  A    between atoms: _24  and  _26
REMARK   13  A    between atoms: _26  and  _27
REMARK   14  A    between atoms: _26  and  _29
REMARK   15  A    between atoms: _29  and  _30
REMARK   16  A    between atoms: _33  and  _35
REMARK   17  A    between atoms: _35  and  _36
REMARK   18  A    between atoms: _35  and  _38
REMARK   19  A    between atoms: _38  and  _39
REMARK   20  A    between atoms: _42  and  _44
REMARK   21  A    between atoms: _44  and  _45
REMARK   22  A    between atoms: _48  and  _50
REMARK   23  A    between atoms: _50  and  _51
REMARK   24  A    between atoms: _54  and  _56
REMARK   25  A    between atoms: _56  and  _57
REMARK   26  A    between atoms: _59  and  _61
REMARK   27  A    between atoms: _61  and  _62
REMARK   28  A    between atoms: _61  and  _64
REMARK   29  A    between atoms: _64  and  _65
REMARK   30  A    between atoms: _65  and  _66
REMARK   31  A    between atoms: _66  and  _67
REMARK   32  A    between atoms: _67  and  _68
REMARK   33  A    between atoms: _72  and  _74
REMARK   34  A    between atoms: _74  and  _75
REMARK   35  A    between atoms: _74  and  _77
REMARK   36  A    between atoms: _77  and  _78
REMARK   37  A    between atoms: _81  and  _83
REMARK   38  A    between atoms: _83  and  _84
REMARK   39  A    between atoms: _83  and  _86
REMARK   40  A    between atoms: _86  and  _87
REMARK   41  A    between atoms: _90  and  _92
REMARK   42  A    between atoms: _92  and  _93
REMARK   43  A    between atoms: _92  and  _95
REMARK   44  A    between atoms: _95  and  _96
REMARK   45  A    between atoms: _99  and  _101
REMARK   46  A    between atoms: _101  and  _102
REMARK   47  A    between atoms: _101  and  _104
REMARK   48  A    between atoms: _104  and  _105
REMARK   49  A    between atoms: _108  and  _110
REMARK   50  A    between atoms: _110  and  _111
REMARK   51  A    between atoms: _110  and  _113
REMARK   52  A    between atoms: _113  and  _114
REMARK   53  A    between atoms: _119  and  _120
REMARK   54  A    between atoms: _122  and  _124
REMARK   55  A    between atoms: _124  and  _125
REMARK   56  A    between atoms: _124  and  _127
REMARK   57  A    between atoms: _127  and  _128
REMARK   58  A    between atoms: _128  and  _129
REMARK   59  A    between atoms: _129  and  _130
REMARK   60  A    between atoms: _130  and  _131
REMARK   61  A    between atoms: _135  and  _137
REMARK   62  A    between atoms: _137  and  _138
REMARK   63  A    between atoms: _137  and  _140
REMARK   64  A    between atoms: _140  and  _141
REMARK   65  A    between atoms: _143  and  _145
REMARK   66  A    between atoms: _145  and  _146
REMARK   67  A    between atoms: _145  and  _148
REMARK   68  A    between atoms: _151  and  _153
REMARK   69  A    between atoms: _153  and  _154
REMARK   70  A    between atoms: _153  and  _156
REMARK   71  A    between atoms: _156  and  _157
REMARK   72  A    between atoms: _160  and  _162
REMARK   73  A    between atoms: _162  and  _163
REMARK   74  A    between atoms: _162  and  _165
REMARK   75  A    between atoms: _165  and  _166
REMARK   76  A    between atoms: _169  and  _171
REMARK   77  A    between atoms: _171  and  _172
REMARK   78  A    between atoms: _171  and  _174
REMARK   79  A    between atoms: _174  and  _175
REMARK   80  A    between atoms: _179  and  _180
REMARK   81  A    between atoms: _185  and  _187
REMARK   82  A    between atoms: _187  and  _188
REMARK   83  A    between atoms: _187  and  _190
REMARK   84  A    between atoms: _190  and  _191
REMARK   85  A    between atoms: _194  and  _196
REMARK   86  A    between atoms: _196  and  _197
REMARK   87  A    between atoms: _196  and  _199
REMARK   88  A    between atoms: _202  and  _204
REMARK   89  A    between atoms: _204  and  _205
REMARK   90  A    between atoms: _207  and  _209
REMARK   91  A    between atoms: _209  and  _210
REMARK   92  A    between atoms: _209  and  _212
REMARK   93  A    between atoms: _212  and  _213
REMARK   94  A    between atoms: _219  and  _221
REMARK   95  A    between atoms: _221  and  _222
REMARK   96  A    between atoms: _221  and  _224
REMARK   97  A    between atoms: _224  and  _225
REMARK   98  A    between atoms: _230  and  _232
REMARK   99  A    between atoms: _232  and  _233
REMARK  100  A    between atoms: _232  and  _235
REMARK  101  A    between atoms: _235  and  _236
REMARK  102  A    between atoms: _239  and  _241
REMARK  103  A    between atoms: _241  and  _242
REMARK  104  A    between atoms: _241  and  _244
REMARK  105  A    between atoms: _247  and  _249
REMARK  106  A    between atoms: _249  and  _250
REMARK  107  A    between atoms: _252  and  _254
REMARK  108  A    between atoms: _254  and  _255
REMARK  109  A    between atoms: _257  and  _259
REMARK  110  A    between atoms: _259  and  _260
REMARK  111  A    between atoms: _259  and  _262
REMARK  112  A    between atoms: _262  and  _263
REMARK  113  A    between atoms: _266  and  _268
REMARK  114  A    between atoms: _268  and  _269
REMARK  115  A    between atoms: _268  and  _271
REMARK  116  A    between atoms: _271  and  _272
REMARK  117  A    between atoms: _275  and  _277
REMARK  118  A    between atoms: _277  and  _278
REMARK  119  A    between atoms: _277  and  _280
REMARK  120  A    between atoms: _280  and  _281
REMARK  121  A    between atoms: _284  and  _286
REMARK  122  A    between atoms: _286  and  _287
REMARK  123  A    between atoms: _286  and  _289
REMARK  124  A    between atoms: _289  and  _290
REMARK  125  A    between atoms: _290  and  _291
REMARK  126  A    between atoms: _291  and  _292
REMARK  127  A    between atoms: _301  and  _303
REMARK  128  A    between atoms: _303  and  _304
REMARK  129  A    between atoms: _303  and  _306
REMARK  130  A    between atoms: _306  and  _307
REMARK  131  A    between atoms: _317  and  _319
REMARK  132  A    between atoms: _319  and  _320
REMARK  133  A    between atoms: _319  and  _322
REMARK  134  A    between atoms: _325  and  _327
REMARK  135  A    between atoms: _327  and  _328
REMARK  136  A    between atoms: _327  and  _330
REMARK  137  A    between atoms: _333  and  _335
REMARK  138  A    between atoms: _335  and  _336
REMARK  139  A    between atoms: _335  and  _338
REMARK  140  A    between atoms: _338  and  _339
REMARK  141  A    between atoms: _342  and  _344
REMARK  142  A    between atoms: _344  and  _345
REMARK  143  A    between atoms: _344  and  _347
REMARK  144  A    between atoms: _349  and  _351
REMARK  145  A    between atoms: _351  and  _352
REMARK  146  A    between atoms: _355  and  _357
REMARK  147  A    between atoms: _357  and  _358
REMARK  148  A    between atoms: _357  and  _360
REMARK  149  A    between atoms: _360  and  _361
REMARK  150  A    between atoms: _361  and  _362
REMARK  151  A    between atoms: _362  and  _363
REMARK  152  A    between atoms: _372  and  _374
REMARK  153  A    between atoms: _374  and  _375
REMARK  154  A    between atoms: _378  and  _380
REMARK  155  A    between atoms: _380  and  _381
REMARK  156  A    between atoms: _380  and  _383
REMARK  157  A    between atoms: _383  and  _384
REMARK  158  A    between atoms: _389  and  _391
REMARK  159  A    between atoms: _391  and  _392
REMARK  160  A    between atoms: _391  and  _394
REMARK  161  A    between atoms: _394  and  _395
REMARK  162  A    between atoms: _395  and  _396
REMARK  163  A    between atoms: _396  and  _397
REMARK  164  A    between atoms: _397  and  _398
REMARK  165  A    between atoms: _402  and  _404
REMARK  166  A    between atoms: _404  and  _405
REMARK  167  A    between atoms: _404  and  _407
REMARK  168  A    between atoms: _407  and  _408
REMARK  169  A    between atoms: _408  and  _409
REMARK  170  A    between atoms: _414  and  _416
REMARK  171  A    between atoms: _416  and  _417
REMARK  172  A    between atoms: _416  and  _419
REMARK  173  A    between atoms: _419  and  _420
REMARK  174  A    between atoms: _423  and  _425
REMARK  175  A    between atoms: _425  and  _426
REMARK  176  A    between atoms: _425  and  _428
REMARK  177  A    between atoms: _428  and  _429
REMARK  178  A    between atoms: _433  and  _434
REMARK  179  A    between atoms: _439  and  _441
REMARK  180  A    between atoms: _441  and  _442
REMARK  181  A    between atoms: _441  and  _444
REMARK  182  A    between atoms: _444  and  _445
REMARK  183  A    between atoms: _447  and  _449
REMARK  184  A    between atoms: _449  and  _450
REMARK  185  A    between atoms: _449  and  _452
REMARK  186  A    between atoms: _454  and  _456
REMARK  187  A    between atoms: _456  and  _457
REMARK  188  A    between atoms: _460  and  _462
REMARK  189  A    between atoms: _462  and  _463
REMARK  190  A    between atoms: _462  and  _465
REMARK  191  A    between atoms: _465  and  _466
REMARK  192  A    between atoms: _469  and  _471
REMARK  193  A    between atoms: _471  and  _472
REMARK  194  A    between atoms: _471  and  _474
REMARK  195  A    between atoms: _474  and  _475
REMARK  196  A    between atoms: _477  and  _479
REMARK  197  A    between atoms: _479  and  _480
REMARK  198  A    between atoms: _482  and  _484
REMARK  199  A    between atoms: _484  and  _485
REMARK  200  A    between atoms: _484  and  _487
REMARK  201  A    between atoms: _487  and  _488
REMARK  202  A    between atoms: _491  and  _493
REMARK  203  A    between atoms: _493  and  _494
REMARK  204  A    between atoms: _493  and  _496
REMARK  205  A    between atoms: _496  and  _497
REMARK  206  A    between atoms: _500  and  _502
REMARK  207  A    between atoms: _502  and  _503
REMARK  208  A    between atoms: _502  and  _505
REMARK  209  A    between atoms: _505  and  _506
REMARK                            x       y       z     vdW  Elec       q    Type
REMARK                         _______ _______ _______ _____ _____    ______ ____
ROOT
ATOM      1  O   HOH     1      -7.002  13.086  49.970  0.00  0.00    +0.000 OA
ENDROOT
TORSDOF 0
REMARK  Name = ../refined-set-2016/4kax/4kax_pocket.pdb
REMARK  209 active torsions:
REMARK  status: ('A' for Active; 'I' for Inactive)
REMARK    1  A    between atoms: _1  and  _3
REMARK    2  A    between atoms: _3  and  _4
REMARK    3  A    between atoms: _3  and  _6
REMARK    4  A    between atoms: _6  and  _7
REMARK    5  A    between atoms: _7  and  _8
REMARK    6  A    between atoms: _10  and  _12
REMARK    7  A    between atoms: _12  and  _13
REMARK    8  A    between atoms: _12  and  _15
REMARK    9  A    between atoms: _15  and  _16
REMARK   10  A    between atoms: _19  and  _21
REMARK   11  A    between atoms: _21  and  _22
REMARK   12  A    between atoms: _24  and  _26
REMARK   13  A    between atoms: _26  and  _27
REMARK   14  A    between atoms: _26  and  _29
REMARK   15  A    between atoms: _29  and  _30
REMARK   16  A    between atoms: _33  and  _35
REMARK   17  A    between atoms: _35  and  _36
REMARK   18  A    between atoms: _35  and  _38
REMARK   19  A    between atoms: _38  and  _39
REMARK   20  A    between atoms: _42  and  _44
REMARK   21  A    between atoms: _44  and  _45
REMARK   22  A    between atoms: _48  and  _50
REMARK   23  A    between atoms: _50  and  _51
REMARK   24  A    between atoms: _54  and  _56
REMARK   25  A    between atoms: _56  and  _57
REMARK   26  A    between atoms: _59  and  _61
REMARK   27  A    between atoms: _61  and  _62
REMARK   28  A    between atoms: _61  and  _64
REMARK   29  A    between atoms: _64  and  _65
REMARK   30  A    between atoms: _65  and  _66
REMARK   31  A    between atoms: _66  and  _67
REMARK   32  A    between atoms: _67  and  _68
REMARK   33  A    between atoms: _72  and  _74
REMARK   34  A    between atoms: _74  and  _75
REMARK   35  A    between atoms: _74  and  _77
REMARK   36  A    between atoms: _77  and  _78
REMARK   37  A    between atoms: _81  and  _83
REMARK   38  A    between atoms: _83  and  _84
REMARK   39  A    between atoms: _83  and  _86
REMARK   40  A    between atoms: _86  and  _87
REMARK   41  A    between atoms: _90  and  _92
REMARK   42  A    between atoms: _92  and  _93
REMARK   43  A    between atoms: _92  and  _95
REMARK   44  A    between atoms: _95  and  _96
REMARK   45  A    between atoms: _99  and  _101
REMARK   46  A    between atoms: _101  and  _102
REMARK   47  A    between atoms: _101  and  _104
REMARK   48  A    between atoms: _104  and  _105
REMARK   49  A    between atoms: _108  and  _110
REMARK   50  A    between atoms: _110  and  _111
REMARK   51  A    between atoms: _110  and  _113
REMARK   52  A    between atoms: _113  and  _114
REMARK   53  A    between atoms: _119  and  _120
REMARK   54  A    between atoms: _122  and  _124
REMARK   55  A    between atoms: _124  and  _125
REMARK   56  A    between atoms: _124  and  _127
REMARK   57  A    between atoms: _127  and  _128
REMARK   58  A    between atoms: _128  and  _129
REMARK   59  A    between atoms: _129  and  _130
REMARK   60  A    between atoms: _130  and  _131
REMARK   61  A    between atoms: _135  and  _137
REMARK   62  A    between atoms: _137  and  _138
REMARK   63  A    between atoms: _137  and  _140
REMARK   64  A    between atoms: _140  and  _141
REMARK   65  A    between atoms: _143  and  _145
REMARK   66  A    between atoms: _145  and  _146
REMARK   67  A    between atoms: _145  and  _148
REMARK   68  A    between atoms: _151  and  _153
REMARK   69  A    between atoms: _153  and  _154
REMARK   70  A    between atoms: _153  and  _156
REMARK   71  A    between atoms: _156  and  _157
REMARK   72  A    between atoms: _160  and  _162
REMARK   73  A    between atoms: _162  and  _163
REMARK   74  A    between atoms: _162  and  _165
REMARK   75  A    between atoms: _165  and  _166
REMARK   76  A    between atoms: _169  and  _171
REMARK   77  A    between atoms: _171  and  _172
REMARK   78  A    between atoms: _171  and  _174
REMARK   79  A    between atoms: _174  and  _175
REMARK   80  A    between atoms: _179  and  _180
REMARK   81  A    between atoms: _185  and  _187
REMARK   82  A    between atoms: _187  and  _188
REMARK   83  A    between atoms: _187  and  _190
REMARK   84  A    between atoms: _190  and  _191
REMARK   85  A    between atoms: _194  and  _196
REMARK   86  A    between atoms: _196  and  _197
REMARK   87  A    between atoms: _196  and  _199
REMARK   88  A    between atoms: _202  and  _204
REMARK   89  A    between atoms: _204  and  _205
REMARK   90  A    between atoms: _207  and  _209
REMARK   91  A    between atoms: _209  and  _210
REMARK   92  A    between atoms: _209  and  _212
REMARK   93  A    between atoms: _212  and  _213
REMARK   94  A    between atoms: _219  and  _221
REMARK   95  A    between atoms: _221  and  _222
REMARK   96  A    between atoms: _221  and  _224
REMARK   97  A    between atoms: _224  and  _225
REMARK   98  A    between atoms: _230  and  _232
REMARK   99  A    between atoms: _232  and  _233
REMARK  100  A    between atoms: _232  and  _235
REMARK  101  A    between atoms: _235  and  _236
REMARK  102  A    between atoms: _239  and  _241
REMARK  103  A    between atoms: _241  and  _242
REMARK  104  A    between atoms: _241  and  _244
REMARK  105  A    between atoms: _247  and  _249
REMARK  106  A    between atoms: _249  and  _250
REMARK  107  A    between atoms: _252  and  _254
REMARK  108  A    between atoms: _254  and  _255
REMARK  109  A    between atoms: _257  and  _259
REMARK  110  A    between atoms: _259  and  _260
REMARK  111  A    between atoms: _259  and  _262
REMARK  112  A    between atoms: _262  and  _263
REMARK  113  A    between atoms: _266  and  _268
REMARK  114  A    between atoms: _268  and  _269
REMARK  115  A    between atoms: _268  and  _271
REMARK  116  A    between atoms: _271  and  _272
REMARK  117  A    between atoms: _275  and  _277
REMARK  118  A    between atoms: _277  and  _278
REMARK  119  A    between atoms: _277  and  _280
REMARK  120  A    between atoms: _280  and  _281
REMARK  121  A    between atoms: _284  and  _286
REMARK  122  A    between atoms: _286  and  _287
REMARK  123  A    between atoms: _286  and  _289
REMARK  124  A    between atoms: _289  and  _290
REMARK  125  A    between atoms: _290  and  _291
REMARK  126  A    between atoms: _291  and  _292
REMARK  127  A    between atoms: _301  and  _303
REMARK  128  A    between atoms: _303  and  _304
REMARK  129  A    between atoms: _303  and  _306
REMARK  130  A    between atoms: _306  and  _307
REMARK  131  A    between atoms: _317  and  _319
REMARK  132  A    between atoms: _319  and  _320
REMARK  133  A    between atoms: _319  and  _322
REMARK  134  A    between atoms: _325  and  _327
REMARK  135  A    between atoms: _327  and  _328
REMARK  136  A    between atoms: _327  and  _330
REMARK  137  A    between atoms: _333  and  _335
REMARK  138  A    between atoms: _335  and  _336
REMARK  139  A    between atoms: _335  and  _338
REMARK  140  A    between atoms: _338  and  _339
REMARK  141  A    between atoms: _342  and  _344
REMARK  142  A    between atoms: _344  and  _345
REMARK  143  A    between atoms: _344  and  _347
REMARK  144  A    between atoms: _349  and  _351
REMARK  145  A    between atoms: _351  and  _352
REMARK  146  A    between atoms: _355  and  _357
REMARK  147  A    between atoms: _357  and  _358
REMARK  148  A    between atoms: _357  and  _360
REMARK  149  A    between atoms: _360  and  _361
REMARK  150  A    between atoms: _361  and  _362
REMARK  151  A    between atoms: _362  and  _363
REMARK  152  A    between atoms: _372  and  _374
REMARK  153  A    between atoms: _374  and  _375
REMARK  154  A    between atoms: _378  and  _380
REMARK  155  A    between atoms: _380  and  _381
REMARK  156  A    between atoms: _380  and  _383
REMARK  157  A    between atoms: _383  and  _384
REMARK  158  A    between atoms: _389  and  _391
REMARK  159  A    between atoms: _391  and  _392
REMARK  160  A    between atoms: _391  and  _394
REMARK  161  A    between atoms: _394  and  _395
REMARK  162  A    between atoms: _395  and  _396
REMARK  163  A    between atoms: _396  and  _397
REMARK  164  A    between atoms: _397  and  _398
REMARK  165  A    between atoms: _402  and  _404
REMARK  166  A    between atoms: _404  and  _405
REMARK  167  A    between atoms: _404  and  _407
REMARK  168  A    between atoms: _407  and  _408
REMARK  169  A    between atoms: _408  and  _409
REMARK  170  A    between atoms: _414  and  _416
REMARK  171  A    between atoms: _416  and  _417
REMARK  172  A    between atoms: _416  and  _419
REMARK  173  A    between atoms: _419  and  _420
REMARK  174  A    between atoms: _423  and  _425
REMARK  175  A    between atoms: _425  and  _426
REMARK  176  A    between atoms: _425  and  _428
REMARK  177  A    between atoms: _428  and  _429
REMARK  178  A    between atoms: _433  and  _434
REMARK  179  A    between atoms: _439  and  _441
REMARK  180  A    between atoms: _441  and  _442
REMARK  181  A    between atoms: _441  and  _444
REMARK  182  A    between atoms: _444  and  _445
REMARK  183  A    between atoms: _447  and  _449
REMARK  184  A    between atoms: _449  and  _450
REMARK  185  A    between atoms: _449  and  _452
REMARK  186  A    between atoms: _454  and  _456
REMARK  187  A    between atoms: _456  and  _457
REMARK  188  A    between atoms: _460  and  _462
REMARK  189  A    between atoms: _462  and  _463
REMARK  190  A    between atoms: _462  and  _465
REMARK  191  A    between atoms: _465  and  _466
REMARK  192  A    between atoms: _469  and  _471
REMARK  193  A    between atoms: _471  and  _472
REMARK  194  A    between atoms: _471  and  _474
REMARK  195  A    between atoms: _474  and  _475
REMARK  196  A    between atoms: _477  and  _479
REMARK  197  A    between atoms: _479  and  _480
REMARK  198  A    between atoms: _482  and  _484
REMARK  199  A    between atoms: _484  and  _485
REMARK  200  A    between atoms: _484  and  _487
REMARK  201  A    between atoms: _487  and  _488
REMARK  202  A    between atoms: _491  and  _493
REMARK  203  A    between atoms: _493  and  _494
REMARK  204  A    between atoms: _493  and  _496
REMARK  205  A    between atoms: _496  and  _497
REMARK  206  A    between atoms: _500  and  _502
REMARK  207  A    between atoms: _502  and  _503
REMARK  208  A    between atoms: _502  and  _505
REMARK  209  A    between atoms: _505  and  _506
REMARK                            x       y       z     vdW  Elec       q    Type
REMARK                         _______ _______ _______ _____ _____    ______ ____
ROOT
ATOM      1  O   HOH     1      -8.942  11.374  50.647  0.00  0.00    +0.000 OA
ENDROOT
TORSDOF 0
REMARK  Name = ../refined-set-2016/4kax/4kax_pocket.pdb
REMARK  209 active torsions:
REMARK  status: ('A' for Active; 'I' for Inactive)
REMARK    1  A    between atoms: _1  and  _3
REMARK    2  A    between atoms: _3  and  _4
REMARK    3  A    between atoms: _3  and  _6
REMARK    4  A    between atoms: _6  and  _7
REMARK    5  A    between atoms: _7  and  _8
REMARK    6  A    between atoms: _10  and  _12
REMARK    7  A    between atoms: _12  and  _13
REMARK    8  A    between atoms: _12  and  _15
REMARK    9  A    between atoms: _15  and  _16
REMARK   10  A    between atoms: _19  and  _21
REMARK   11  A    between atoms: _21  and  _22
REMARK   12  A    between atoms: _24  and  _26
REMARK   13  A    between atoms: _26  and  _27
REMARK   14  A    between atoms: _26  and  _29
REMARK   15  A    between atoms: _29  and  _30
REMARK   16  A    between atoms: _33  and  _35
REMARK   17  A    between atoms: _35  and  _36
REMARK   18  A    between atoms: _35  and  _38
REMARK   19  A    between atoms: _38  and  _39
REMARK   20  A    between atoms: _42  and  _44
REMARK   21  A    between atoms: _44  and  _45
REMARK   22  A    between atoms: _48  and  _50
REMARK   23  A    between atoms: _50  and  _51
REMARK   24  A    between atoms: _54  and  _56
REMARK   25  A    between atoms: _56  and  _57
REMARK   26  A    between atoms: _59  and  _61
REMARK   27  A    between atoms: _61  and  _62
REMARK   28  A    between atoms: _61  and  _64
REMARK   29  A    between atoms: _64  and  _65
REMARK   30  A    between atoms: _65  and  _66
REMARK   31  A    between atoms: _66  and  _67
REMARK   32  A    between atoms: _67  and  _68
REMARK   33  A    between atoms: _72  and  _74
REMARK   34  A    between atoms: _74  and  _75
REMARK   35  A    between atoms: _74  and  _77
REMARK   36  A    between atoms: _77  and  _78
REMARK   37  A    between atoms: _81  and  _83
REMARK   38  A    between atoms: _83  and  _84
REMARK   39  A    between atoms: _83  and  _86
REMARK   40  A    between atoms: _86  and  _87
REMARK   41  A    between atoms: _90  and  _92
REMARK   42  A    between atoms: _92  and  _93
REMARK   43  A    between atoms: _92  and  _95
REMARK   44  A    between atoms: _95  and  _96
REMARK   45  A    between atoms: _99  and  _101
REMARK   46  A    between atoms: _101  and  _102
REMARK   47  A    between atoms: _101  and  _104
REMARK   48  A    between atoms: _104  and  _105
REMARK   49  A    between atoms: _108  and  _110
REMARK   50  A    between atoms: _110  and  _111
REMARK   51  A    between atoms: _110  and  _113
REMARK   52  A    between atoms: _113  and  _114
REMARK   53  A    between atoms: _119  and  _120
REMARK   54  A    between atoms: _122  and  _124
REMARK   55  A    between atoms: _124  and  _125
REMARK   56  A    between atoms: _124  and  _127
REMARK   57  A    between atoms: _127  and  _128
REMARK   58  A    between atoms: _128  and  _129
REMARK   59  A    between atoms: _129  and  _130
REMARK   60  A    between atoms: _130  and  _131
REMARK   61  A    between atoms: _135  and  _137
REMARK   62  A    between atoms: _137  and  _138
REMARK   63  A    between atoms: _137  and  _140
REMARK   64  A    between atoms: _140  and  _141
REMARK   65  A    between atoms: _143  and  _145
REMARK   66  A    between atoms: _145  and  _146
REMARK   67  A    between atoms: _145  and  _148
REMARK   68  A    between atoms: _151  and  _153
REMARK   69  A    between atoms: _153  and  _154
REMARK   70  A    between atoms: _153  and  _156
REMARK   71  A    between atoms: _156  and  _157
REMARK   72  A    between atoms: _160  and  _162
REMARK   73  A    between atoms: _162  and  _163
REMARK   74  A    between atoms: _162  and  _165
REMARK   75  A    between atoms: _165  and  _166
REMARK   76  A    between atoms: _169  and  _171
REMARK   77  A    between atoms: _171  and  _172
REMARK   78  A    between atoms: _171  and  _174
REMARK   79  A    between atoms: _174  and  _175
REMARK   80  A    between atoms: _179  and  _180
REMARK   81  A    between atoms: _185  and  _187
REMARK   82  A    between atoms: _187  and  _188
REMARK   83  A    between atoms: _187  and  _190
REMARK   84  A    between atoms: _190  and  _191
REMARK   85  A    between atoms: _194  and  _196
REMARK   86  A    between atoms: _196  and  _197
REMARK   87  A    between atoms: _196  and  _199
REMARK   88  A    between atoms: _202  and  _204
REMARK   89  A    between atoms: _204  and  _205
REMARK   90  A    between atoms: _207  and  _209
REMARK   91  A    between atoms: _209  and  _210
REMARK   92  A    between atoms: _209  and  _212
REMARK   93  A    between atoms: _212  and  _213
REMARK   94  A    between atoms: _219  and  _221
REMARK   95  A    between atoms: _221  and  _222
REMARK   96  A    between atoms: _221  and  _224
REMARK   97  A    between atoms: _224  and  _225
REMARK   98  A    between atoms: _230  and  _232
REMARK   99  A    between atoms: _232  and  _233
REMARK  100  A    between atoms: _232  and  _235
REMARK  101  A    between atoms: _235  and  _236
REMARK  102  A    between atoms: _239  and  _241
REMARK  103  A    between atoms: _241  and  _242
REMARK  104  A    between atoms: _241  and  _244
REMARK  105  A    between atoms: _247  and  _249
REMARK  106  A    between atoms: _249  and  _250
REMARK  107  A    between atoms: _252  and  _254
REMARK  108  A    between atoms: _254  and  _255
REMARK  109  A    between atoms: _257  and  _259
REMARK  110  A    between atoms: _259  and  _260
REMARK  111  A    between atoms: _259  and  _262
REMARK  112  A    between atoms: _262  and  _263
REMARK  113  A    between atoms: _266  and  _268
REMARK  114  A    between atoms: _268  and  _269
REMARK  115  A    between atoms: _268  and  _271
REMARK  116  A    between atoms: _271  and  _272
REMARK  117  A    between atoms: _275  and  _277
REMARK  118  A    between atoms: _277  and  _278
REMARK  119  A    between atoms: _277  and  _280
REMARK  120  A    between atoms: _280  and  _281
REMARK  121  A    between atoms: _284  and  _286
REMARK  122  A    between atoms: _286  and  _287
REMARK  123  A    between atoms: _286  and  _289
REMARK  124  A    between atoms: _289  and  _290
REMARK  125  A    between atoms: _290  and  _291
REMARK  126  A    between atoms: _291  and  _292
REMARK  127  A    between atoms: _301  and  _303
REMARK  128  A    between atoms: _303  and  _304
REMARK  129  A    between atoms: _303  and  _306
REMARK  130  A    between atoms: _306  and  _307
REMARK  131  A    between atoms: _317  and  _319
REMARK  132  A    between atoms: _319  and  _320
REMARK  133  A    between atoms: _319  and  _322
REMARK  134  A    between atoms: _325  and  _327
REMARK  135  A    between atoms: _327  and  _328
REMARK  136  A    between atoms: _327  and  _330
REMARK  137  A    between atoms: _333  and  _335
REMARK  138  A    between atoms: _335  and  _336
REMARK  139  A    between atoms: _335  and  _338
REMARK  140  A    between atoms: _338  and  _339
REMARK  141  A    between atoms: _342  and  _344
REMARK  142  A    between atoms: _344  and  _345
REMARK  143  A    between atoms: _344  and  _347
REMARK  144  A    between atoms: _349  and  _351
REMARK  145  A    between atoms: _351  and  _352
REMARK  146  A    between atoms: _355  and  _357
REMARK  147  A    between atoms: _357  and  _358
REMARK  148  A    between atoms: _357  and  _360
REMARK  149  A    between atoms: _360  and  _361
REMARK  150  A    between atoms: _361  and  _362
REMARK  151  A    between atoms: _362  and  _363
REMARK  152  A    between atoms: _372  and  _374
REMARK  153  A    between atoms: _374  and  _375
REMARK  154  A    between atoms: _378  and  _380
REMARK  155  A    between atoms: _380  and  _381
REMARK  156  A    between atoms: _380  and  _383
REMARK  157  A    between atoms: _383  and  _384
REMARK  158  A    between atoms: _389  and  _391
REMARK  159  A    between atoms: _391  and  _392
REMARK  160  A    between atoms: _391  and  _394
REMARK  161  A    between atoms: _394  and  _395
REMARK  162  A    between atoms: _395  and  _396
REMARK  163  A    between atoms: _396  and  _397
REMARK  164  A    between atoms: _397  and  _398
REMARK  165  A    between atoms: _402  and  _404
REMARK  166  A    between atoms: _404  and  _405
REMARK  167  A    between atoms: _404  and  _407
REMARK  168  A    between atoms: _407  and  _408
REMARK  169  A    between atoms: _408  and  _409
REMARK  170  A    between atoms: _414  and  _416
REMARK  171  A    between atoms: _416  and  _417
REMARK  172  A    between atoms: _416  and  _419
REMARK  173  A    between atoms: _419  and  _420
REMARK  174  A    between atoms: _423  and  _425
REMARK  175  A    between atoms: _425  and  _426
REMARK  176  A    between atoms: _425  and  _428
REMARK  177  A    between atoms: _428  and  _429
REMARK  178  A    between atoms: _433  and  _434
REMARK  179  A    between atoms: _439  and  _441
REMARK  180  A    between atoms: _441  and  _442
REMARK  181  A    between atoms: _441  and  _444
REMARK  182  A    between atoms: _444  and  _445
REMARK  183  A    between atoms: _447  and  _449
REMARK  184  A    between atoms: _449  and  _450
REMARK  185  A    between atoms: _449  and  _452
REMARK  186  A    between atoms: _454  and  _456
REMARK  187  A    between atoms: _456  and  _457
REMARK  188  A    between atoms: _460  and  _462
REMARK  189  A    between atoms: _462  and  _463
REMARK  190  A    between atoms: _462  and  _465
REMARK  191  A    between atoms: _465  and  _466
REMARK  192  A    between atoms: _469  and  _471
REMARK  193  A    between atoms: _471  and  _472
REMARK  194  A    between atoms: _471  and  _474
REMARK  195  A    between atoms: _474  and  _475
REMARK  196  A    between atoms: _477  and  _479
REMARK  197  A    between atoms: _479  and  _480
REMARK  198  A    between atoms: _482  and  _484
REMARK  199  A    between atoms: _484  and  _485
REMARK  200  A    between atoms: _484  and  _487
REMARK  201  A    between atoms: _487  and  _488
REMARK  202  A    between atoms: _491  and  _493
REMARK  203  A    between atoms: _493  and  _494
REMARK  204  A    between atoms: _493  and  _496
REMARK  205  A    between atoms: _496  and  _497
REMARK  206  A    between atoms: _500  and  _502
REMARK  207  A    between atoms: _502  and  _503
REMARK  208  A    between atoms: _502  and  _505
REMARK  209  A    between atoms: _505  and  _506
REMARK                            x       y       z     vdW  Elec       q    Type
REMARK                         _______ _______ _______ _____ _____    ______ ____
ROOT
ATOM      1  O   HOH     1      -3.244  13.273  49.601  0.00  0.00    +0.000 OA
ENDROOT
TORSDOF 0
REMARK  Name = ../refined-set-2016/4kax/4kax_pocket.pdb
REMARK  209 active torsions:
REMARK  status: ('A' for Active; 'I' for Inactive)
REMARK    1  A    between atoms: _1  and  _3
REMARK    2  A    between atoms: _3  and  _4
REMARK    3  A    between atoms: _3  and  _6
REMARK    4  A    between atoms: _6  and  _7
REMARK    5  A    between atoms: _7  and  _8
REMARK    6  A    between atoms: _10  and  _12
REMARK    7  A    between atoms: _12  and  _13
REMARK    8  A    between atoms: _12  and  _15
REMARK    9  A    between atoms: _15  and  _16
REMARK   10  A    between atoms: _19  and  _21
REMARK   11  A    between atoms: _21  and  _22
REMARK   12  A    between atoms: _24  and  _26
REMARK   13  A    between atoms: _26  and  _27
REMARK   14  A    between atoms: _26  and  _29
REMARK   15  A    between atoms: _29  and  _30
REMARK   16  A    between atoms: _33  and  _35
REMARK   17  A    between atoms: _35  and  _36
REMARK   18  A    between atoms: _35  and  _38
REMARK   19  A    between atoms: _38  and  _39
REMARK   20  A    between atoms: _42  and  _44
REMARK   21  A    between atoms: _44  and  _45
REMARK   22  A    between atoms: _48  and  _50
REMARK   23  A    between atoms: _50  and  _51
REMARK   24  A    between atoms: _54  and  _56
REMARK   25  A    between atoms: _56  and  _57
REMARK   26  A    between atoms: _59  and  _61
REMARK   27  A    between atoms: _61  and  _62
REMARK   28  A    between atoms: _61  and  _64
REMARK   29  A    between atoms: _64  and  _65
REMARK   30  A    between atoms: _65  and  _66
REMARK   31  A    between atoms: _66  and  _67
REMARK   32  A    between atoms: _67  and  _68
REMARK   33  A    between atoms: _72  and  _74
REMARK   34  A    between atoms: _74  and  _75
REMARK   35  A    between atoms: _74  and  _77
REMARK   36  A    between atoms: _77  and  _78
REMARK   37  A    between atoms: _81  and  _83
REMARK   38  A    between atoms: _83  and  _84
REMARK   39  A    between atoms: _83  and  _86
REMARK   40  A    between atoms: _86  and  _87
REMARK   41  A    between atoms: _90  and  _92
REMARK   42  A    between atoms: _92  and  _93
REMARK   43  A    between atoms: _92  and  _95
REMARK   44  A    between atoms: _95  and  _96
REMARK   45  A    between atoms: _99  and  _101
REMARK   46  A    between atoms: _101  and  _102
REMARK   47  A    between atoms: _101  and  _104
REMARK   48  A    between atoms: _104  and  _105
REMARK   49  A    between atoms: _108  and  _110
REMARK   50  A    between atoms: _110  and  _111
REMARK   51  A    between atoms: _110  and  _113
REMARK   52  A    between atoms: _113  and  _114
REMARK   53  A    between atoms: _119  and  _120
REMARK   54  A    between atoms: _122  and  _124
REMARK   55  A    between atoms: _124  and  _125
REMARK   56  A    between atoms: _124  and  _127
REMARK   57  A    between atoms: _127  and  _128
REMARK   58  A    between atoms: _128  and  _129
REMARK   59  A    between atoms: _129  and  _130
REMARK   60  A    between atoms: _130  and  _131
REMARK   61  A    between atoms: _135  and  _137
REMARK   62  A    between atoms: _137  and  _138
REMARK   63  A    between atoms: _137  and  _140
REMARK   64  A    between atoms: _140  and  _141
REMARK   65  A    between atoms: _143  and  _145
REMARK   66  A    between atoms: _145  and  _146
REMARK   67  A    between atoms: _145  and  _148
REMARK   68  A    between atoms: _151  and  _153
REMARK   69  A    between atoms: _153  and  _154
REMARK   70  A    between atoms: _153  and  _156
REMARK   71  A    between atoms: _156  and  _157
REMARK   72  A    between atoms: _160  and  _162
REMARK   73  A    between atoms: _162  and  _163
REMARK   74  A    between atoms: _162  and  _165
REMARK   75  A    between atoms: _165  and  _166
REMARK   76  A    between atoms: _169  and  _171
REMARK   77  A    between atoms: _171  and  _172
REMARK   78  A    between atoms: _171  and  _174
REMARK   79  A    between atoms: _174  and  _175
REMARK   80  A    between atoms: _179  and  _180
REMARK   81  A    between atoms: _185  and  _187
REMARK   82  A    between atoms: _187  and  _188
REMARK   83  A    between atoms: _187  and  _190
REMARK   84  A    between atoms: _190  and  _191
REMARK   85  A    between atoms: _194  and  _196
REMARK   86  A    between atoms: _196  and  _197
REMARK   87  A    between atoms: _196  and  _199
REMARK   88  A    between atoms: _202  and  _204
REMARK   89  A    between atoms: _204  and  _205
REMARK   90  A    between atoms: _207  and  _209
REMARK   91  A    between atoms: _209  and  _210
REMARK   92  A    between atoms: _209  and  _212
REMARK   93  A    between atoms: _212  and  _213
REMARK   94  A    between atoms: _219  and  _221
REMARK   95  A    between atoms: _221  and  _222
REMARK   96  A    between atoms: _221  and  _224
REMARK   97  A    between atoms: _224  and  _225
REMARK   98  A    between atoms: _230  and  _232
REMARK   99  A    between atoms: _232  and  _233
REMARK  100  A    between atoms: _232  and  _235
REMARK  101  A    between atoms: _235  and  _236
REMARK  102  A    between atoms: _239  and  _241
REMARK  103  A    between atoms: _241  and  _242
REMARK  104  A    between atoms: _241  and  _244
REMARK  105  A    between atoms: _247  and  _249
REMARK  106  A    between atoms: _249  and  _250
REMARK  107  A    between atoms: _252  and  _254
REMARK  108  A    between atoms: _254  and  _255
REMARK  109  A    between atoms: _257  and  _259
REMARK  110  A    between atoms: _259  and  _260
REMARK  111  A    between atoms: _259  and  _262
REMARK  112  A    between atoms: _262  and  _263
REMARK  113  A    between atoms: _266  and  _268
REMARK  114  A    between atoms: _268  and  _269
REMARK  115  A    between atoms: _268  and  _271
REMARK  116  A    between atoms: _271  and  _272
REMARK  117  A    between atoms: _275  and  _277
REMARK  118  A    between atoms: _277  and  _278
REMARK  119  A    between atoms: _277  and  _280
REMARK  120  A    between atoms: _280  and  _281
REMARK  121  A    between atoms: _284  and  _286
REMARK  122  A    between atoms: _286  and  _287
REMARK  123  A    between atoms: _286  and  _289
REMARK  124  A    between atoms: _289  and  _290
REMARK  125  A    between atoms: _290  and  _291
REMARK  126  A    between atoms: _291  and  _292
REMARK  127  A    between atoms: _301  and  _303
REMARK  128  A    between atoms: _303  and  _304
REMARK  129  A    between atoms: _303  and  _306
REMARK  130  A    between atoms: _306  and  _307
REMARK  131  A    between atoms: _317  and  _319
REMARK  132  A    between atoms: _319  and  _320
REMARK  133  A    between atoms: _319  and  _322
REMARK  134  A    between atoms: _325  and  _327
REMARK  135  A    between atoms: _327  and  _328
REMARK  136  A    between atoms: _327  and  _330
REMARK  137  A    between atoms: _333  and  _335
REMARK  138  A    between atoms: _335  and  _336
REMARK  139  A    between atoms: _335  and  _338
REMARK  140  A    between atoms: _338  and  _339
REMARK  141  A    between atoms: _342  and  _344
REMARK  142  A    between atoms: _344  and  _345
REMARK  143  A    between atoms: _344  and  _347
REMARK  144  A    between atoms: _349  and  _351
REMARK  145  A    between atoms: _351  and  _352
REMARK  146  A    between atoms: _355  and  _357
REMARK  147  A    between atoms: _357  and  _358
REMARK  148  A    between atoms: _357  and  _360
REMARK  149  A    between atoms: _360  and  _361
REMARK  150  A    between atoms: _361  and  _362
REMARK  151  A    between atoms: _362  and  _363
REMARK  152  A    between atoms: _372  and  _374
REMARK  153  A    between atoms: _374  and  _375
REMARK  154  A    between atoms: _378  and  _380
REMARK  155  A    between atoms: _380  and  _381
REMARK  156  A    between atoms: _380  and  _383
REMARK  157  A    between atoms: _383  and  _384
REMARK  158  A    between atoms: _389  and  _391
REMARK  159  A    between atoms: _391  and  _392
REMARK  160  A    between atoms: _391  and  _394
REMARK  161  A    between atoms: _394  and  _395
REMARK  162  A    between atoms: _395  and  _396
REMARK  163  A    between atoms: _396  and  _397
REMARK  164  A    between atoms: _397  and  _398
REMARK  165  A    between atoms: _402  and  _404
REMARK  166  A    between atoms: _404  and  _405
REMARK  167  A    between atoms: _404  and  _407
REMARK  168  A    between atoms: _407  and  _408
REMARK  169  A    between atoms: _408  and  _409
REMARK  170  A    between atoms: _414  and  _416
REMARK  171  A    between atoms: _416  and  _417
REMARK  172  A    between atoms: _416  and  _419
REMARK  173  A    between atoms: _419  and  _420
REMARK  174  A    between atoms: _423  and  _425
REMARK  175  A    between atoms: _425  and  _426
REMARK  176  A    between atoms: _425  and  _428
REMARK  177  A    between atoms: _428  and  _429
REMARK  178  A    between atoms: _433  and  _434
REMARK  179  A    between atoms: _439  and  _441
REMARK  180  A    between atoms: _441  and  _442
REMARK  181  A    between atoms: _441  and  _444
REMARK  182  A    between atoms: _444  and  _445
REMARK  183  A    between atoms: _447  and  _449
REMARK  184  A    between atoms: _449  and  _450
REMARK  185  A    between atoms: _449  and  _452
REMARK  186  A    between atoms: _454  and  _456
REMARK  187  A    between atoms: _456  and  _457
REMARK  188  A    between atoms: _460  and  _462
REMARK  189  A    between atoms: _462  and  _463
REMARK  190  A    between atoms: _462  and  _465
REMARK  191  A    between atoms: _465  and  _466
REMARK  192  A    between atoms: _469  and  _471
REMARK  193  A    between atoms: _471  and  _472
REMARK  194  A    between atoms: _471  and  _474
REMARK  195  A    between atoms: _474  and  _475
REMARK  196  A    between atoms: _477  and  _479
REMARK  197  A    between atoms: _479  and  _480
REMARK  198  A    between atoms: _482  and  _484
REMARK  199  A    between atoms: _484  and  _485
REMARK  200  A    between atoms: _484  and  _487
REMARK  201  A    between atoms: _487  and  _488
REMARK  202  A    between atoms: _491  and  _493
REMARK  203  A    between atoms: _493  and  _494
REMARK  204  A    between atoms: _493  and  _496
REMARK  205  A    between atoms: _496  and  _497
REMARK  206  A    between atoms: _500  and  _502
REMARK  207  A    between atoms: _502  and  _503
REMARK  208  A    between atoms: _502  and  _505
REMARK  209  A    between atoms: _505  and  _506
REMARK                            x       y       z     vdW  Elec       q    Type
REMARK                         _______ _______ _______ _____ _____    ______ ____
ROOT
ATOM      1  O   HOH     1      -2.924  12.632  60.447  0.00  0.00    +0.000 OA
ENDROOT
TORSDOF 0
REMARK  Name = ../refined-set-2016/4kax/4kax_pocket.pdb
REMARK  209 active torsions:
REMARK  status: ('A' for Active; 'I' for Inactive)
REMARK    1  A    between atoms: _1  and  _3
REMARK    2  A    between atoms: _3  and  _4
REMARK    3  A    between atoms: _3  and  _6
REMARK    4  A    between atoms: _6  and  _7
REMARK    5  A    between atoms: _7  and  _8
REMARK    6  A    between atoms: _10  and  _12
REMARK    7  A    between atoms: _12  and  _13
REMARK    8  A    between atoms: _12  and  _15
REMARK    9  A    between atoms: _15  and  _16
REMARK   10  A    between atoms: _19  and  _21
REMARK   11  A    between atoms: _21  and  _22
REMARK   12  A    between atoms: _24  and  _26
REMARK   13  A    between atoms: _26  and  _27
REMARK   14  A    between atoms: _26  and  _29
REMARK   15  A    between atoms: _29  and  _30
REMARK   16  A    between atoms: _33  and  _35
REMARK   17  A    between atoms: _35  and  _36
REMARK   18  A    between atoms: _35  and  _38
REMARK   19  A    between atoms: _38  and  _39
REMARK   20  A    between atoms: _42  and  _44
REMARK   21  A    between atoms: _44  and  _45
REMARK   22  A    between atoms: _48  and  _50
REMARK   23  A    between atoms: _50  and  _51
REMARK   24  A    between atoms: _54  and  _56
REMARK   25  A    between atoms: _56  and  _57
REMARK   26  A    between atoms: _59  and  _61
REMARK   27  A    between atoms: _61  and  _62
REMARK   28  A    between atoms: _61  and  _64
REMARK   29  A    between atoms: _64  and  _65
REMARK   30  A    between atoms: _65  and  _66
REMARK   31  A    between atoms: _66  and  _67
REMARK   32  A    between atoms: _67  and  _68
REMARK   33  A    between atoms: _72  and  _74
REMARK   34  A    between atoms: _74  and  _75
REMARK   35  A    between atoms: _74  and  _77
REMARK   36  A    between atoms: _77  and  _78
REMARK   37  A    between atoms: _81  and  _83
REMARK   38  A    between atoms: _83  and  _84
REMARK   39  A    between atoms: _83  and  _86
REMARK   40  A    between atoms: _86  and  _87
REMARK   41  A    between atoms: _90  and  _92
REMARK   42  A    between atoms: _92  and  _93
REMARK   43  A    between atoms: _92  and  _95
REMARK   44  A    between atoms: _95  and  _96
REMARK   45  A    between atoms: _99  and  _101
REMARK   46  A    between atoms: _101  and  _102
REMARK   47  A    between atoms: _101  and  _104
REMARK   48  A    between atoms: _104  and  _105
REMARK   49  A    between atoms: _108  and  _110
REMARK   50  A    between atoms: _110  and  _111
REMARK   51  A    between atoms: _110  and  _113
REMARK   52  A    between atoms: _113  and  _114
REMARK   53  A    between atoms: _119  and  _120
REMARK   54  A    between atoms: _122  and  _124
REMARK   55  A    between atoms: _124  and  _125
REMARK   56  A    between atoms: _124  and  _127
REMARK   57  A    between atoms: _127  and  _128
REMARK   58  A    between atoms: _128  and  _129
REMARK   59  A    between atoms: _129  and  _130
REMARK   60  A    between atoms: _130  and  _131
REMARK   61  A    between atoms: _135  and  _137
REMARK   62  A    between atoms: _137  and  _138
REMARK   63  A    between atoms: _137  and  _140
REMARK   64  A    between atoms: _140  and  _141
REMARK   65  A    between atoms: _143  and  _145
REMARK   66  A    between atoms: _145  and  _146
REMARK   67  A    between atoms: _145  and  _148
REMARK   68  A    between atoms: _151  and  _153
REMARK   69  A    between atoms: _153  and  _154
REMARK   70  A    between atoms: _153  and  _156
REMARK   71  A    between atoms: _156  and  _157
REMARK   72  A    between atoms: _160  and  _162
REMARK   73  A    between atoms: _162  and  _163
REMARK   74  A    between atoms: _162  and  _165
REMARK   75  A    between atoms: _165  and  _166
REMARK   76  A    between atoms: _169  and  _171
REMARK   77  A    between atoms: _171  and  _172
REMARK   78  A    between atoms: _171  and  _174
REMARK   79  A    between atoms: _174  and  _175
REMARK   80  A    between atoms: _179  and  _180
REMARK   81  A    between atoms: _185  and  _187
REMARK   82  A    between atoms: _187  and  _188
REMARK   83  A    between atoms: _187  and  _190
REMARK   84  A    between atoms: _190  and  _191
REMARK   85  A    between atoms: _194  and  _196
REMARK   86  A    between atoms: _196  and  _197
REMARK   87  A    between atoms: _196  and  _199
REMARK   88  A    between atoms: _202  and  _204
REMARK   89  A    between atoms: _204  and  _205
REMARK   90  A    between atoms: _207  and  _209
REMARK   91  A    between atoms: _209  and  _210
REMARK   92  A    between atoms: _209  and  _212
REMARK   93  A    between atoms: _212  and  _213
REMARK   94  A    between atoms: _219  and  _221
REMARK   95  A    between atoms: _221  and  _222
REMARK   96  A    between atoms: _221  and  _224
REMARK   97  A    between atoms: _224  and  _225
REMARK   98  A    between atoms: _230  and  _232
REMARK   99  A    between atoms: _232  and  _233
REMARK  100  A    between atoms: _232  and  _235
REMARK  101  A    between atoms: _235  and  _236
REMARK  102  A    between atoms: _239  and  _241
REMARK  103  A    between atoms: _241  and  _242
REMARK  104  A    between atoms: _241  and  _244
REMARK  105  A    between atoms: _247  and  _249
REMARK  106  A    between atoms: _249  and  _250
REMARK  107  A    between atoms: _252  and  _254
REMARK  108  A    between atoms: _254  and  _255
REMARK  109  A    between atoms: _257  and  _259
REMARK  110  A    between atoms: _259  and  _260
REMARK  111  A    between atoms: _259  and  _262
REMARK  112  A    between atoms: _262  and  _263
REMARK  113  A    between atoms: _266  and  _268
REMARK  114  A    between atoms: _268  and  _269
REMARK  115  A    between atoms: _268  and  _271
REMARK  116  A    between atoms: _271  and  _272
REMARK  117  A    between atoms: _275  and  _277
REMARK  118  A    between atoms: _277  and  _278
REMARK  119  A    between atoms: _277  and  _280
REMARK  120  A    between atoms: _280  and  _281
REMARK  121  A    between atoms: _284  and  _286
REMARK  122  A    between atoms: _286  and  _287
REMARK  123  A    between atoms: _286  and  _289
REMARK  124  A    between atoms: _289  and  _290
REMARK  125  A    between atoms: _290  and  _291
REMARK  126  A    between atoms: _291  and  _292
REMARK  127  A    between atoms: _301  and  _303
REMARK  128  A    between atoms: _303  and  _304
REMARK  129  A    between atoms: _303  and  _306
REMARK  130  A    between atoms: _306  and  _307
REMARK  131  A    between atoms: _317  and  _319
REMARK  132  A    between atoms: _319  and  _320
REMARK  133  A    between atoms: _319  and  _322
REMARK  134  A    between atoms: _325  and  _327
REMARK  135  A    between atoms: _327  and  _328
REMARK  136  A    between atoms: _327  and  _330
REMARK  137  A    between atoms: _333  and  _335
REMARK  138  A    between atoms: _335  and  _336
REMARK  139  A    between atoms: _335  and  _338
REMARK  140  A    between atoms: _338  and  _339
REMARK  141  A    between atoms: _342  and  _344
REMARK  142  A    between atoms: _344  and  _345
REMARK  143  A    between atoms: _344  and  _347
REMARK  144  A    between atoms: _349  and  _351
REMARK  145  A    between atoms: _351  and  _352
REMARK  146  A    between atoms: _355  and  _357
REMARK  147  A    between atoms: _357  and  _358
REMARK  148  A    between atoms: _357  and  _360
REMARK  149  A    between atoms: _360  and  _361
REMARK  150  A    between atoms: _361  and  _362
REMARK  151  A    between atoms: _362  and  _363
REMARK  152  A    between atoms: _372  and  _374
REMARK  153  A    between atoms: _374  and  _375
REMARK  154  A    between atoms: _378  and  _380
REMARK  155  A    between atoms: _380  and  _381
REMARK  156  A    between atoms: _380  and  _383
REMARK  157  A    between atoms: _383  and  _384
REMARK  158  A    between atoms: _389  and  _391
REMARK  159  A    between atoms: _391  and  _392
REMARK  160  A    between atoms: _391  and  _394
REMARK  161  A    between atoms: _394  and  _395
REMARK  162  A    between atoms: _395  and  _396
REMARK  163  A    between atoms: _396  and  _397
REMARK  164  A    between atoms: _397  and  _398
REMARK  165  A    between atoms: _402  and  _404
REMARK  166  A    between atoms: _404  and  _405
REMARK  167  A    between atoms: _404  and  _407
REMARK  168  A    between atoms: _407  and  _408
REMARK  169  A    between atoms: _408  and  _409
REMARK  170  A    between atoms: _414  and  _416
REMARK  171  A    between atoms: _416  and  _417
REMARK  172  A    between atoms: _416  and  _419
REMARK  173  A    between atoms: _419  and  _420
REMARK  174  A    between atoms: _423  and  _425
REMARK  175  A    between atoms: _425  and  _426
REMARK  176  A    between atoms: _425  and  _428
REMARK  177  A    between atoms: _428  and  _429
REMARK  178  A    between atoms: _433  and  _434
REMARK  179  A    between atoms: _439  and  _441
REMARK  180  A    between atoms: _441  and  _442
REMARK  181  A    between atoms: _441  and  _444
REMARK  182  A    between atoms: _444  and  _445
REMARK  183  A    between atoms: _447  and  _449
REMARK  184  A    between atoms: _449  and  _450
REMARK  185  A    between atoms: _449  and  _452
REMARK  186  A    between atoms: _454  and  _456
REMARK  187  A    between atoms: _456  and  _457
REMARK  188  A    between atoms: _460  and  _462
REMARK  189  A    between atoms: _462  and  _463
REMARK  190  A    between atoms: _462  and  _465
REMARK  191  A    between atoms: _465  and  _466
REMARK  192  A    between atoms: _469  and  _471
REMARK  193  A    between atoms: _471  and  _472
REMARK  194  A    between atoms: _471  and  _474
REMARK  195  A    between atoms: _474  and  _475
REMARK  196  A    between atoms: _477  and  _479
REMARK  197  A    between atoms: _479  and  _480
REMARK  198  A    between atoms: _482  and  _484
REMARK  199  A    between atoms: _484  and  _485
REMARK  200  A    between atoms: _484  and  _487
REMARK  201  A    between atoms: _487  and  _488
REMARK  202  A    between atoms: _491  and  _493
REMARK  203  A    between atoms: _493  and  _494
REMARK  204  A    between atoms: _493  and  _496
REMARK  205  A    between atoms: _496  and  _497
REMARK  206  A    between atoms: _500  and  _502
REMARK  207  A    between atoms: _502  and  _503
REMARK  208  A    between atoms: _502  and  _505
REMARK  209  A    between atoms: _505  and  _506
REMARK                            x       y       z     vdW  Elec       q    Type
REMARK                         _______ _______ _______ _____ _____    ______ ____
ROOT
ATOM      1  O   HOH     1      -5.797  12.817  45.411  0.00  0.00    +0.000 OA
ENDROOT
TORSDOF 0
REMARK  Name = ../refined-set-2016/4kax/4kax_pocket.pdb
REMARK  209 active torsions:
REMARK  status: ('A' for Active; 'I' for Inactive)
REMARK    1  A    between atoms: _1  and  _3
REMARK    2  A    between atoms: _3  and  _4
REMARK    3  A    between atoms: _3  and  _6
REMARK    4  A    between atoms: _6  and  _7
REMARK    5  A    between atoms: _7  and  _8
REMARK    6  A    between atoms: _10  and  _12
REMARK    7  A    between atoms: _12  and  _13
REMARK    8  A    between atoms: _12  and  _15
REMARK    9  A    between atoms: _15  and  _16
REMARK   10  A    between atoms: _19  and  _21
REMARK   11  A    between atoms: _21  and  _22
REMARK   12  A    between atoms: _24  and  _26
REMARK   13  A    between atoms: _26  and  _27
REMARK   14  A    between atoms: _26  and  _29
REMARK   15  A    between atoms: _29  and  _30
REMARK   16  A    between atoms: _33  and  _35
REMARK   17  A    between atoms: _35  and  _36
REMARK   18  A    between atoms: _35  and  _38
REMARK   19  A    between atoms: _38  and  _39
REMARK   20  A    between atoms: _42  and  _44
REMARK   21  A    between atoms: _44  and  _45
REMARK   22  A    between atoms: _48  and  _50
REMARK   23  A    between atoms: _50  and  _51
REMARK   24  A    between atoms: _54  and  _56
REMARK   25  A    between atoms: _56  and  _57
REMARK   26  A    between atoms: _59  and  _61
REMARK   27  A    between atoms: _61  and  _62
REMARK   28  A    between atoms: _61  and  _64
REMARK   29  A    between atoms: _64  and  _65
REMARK   30  A    between atoms: _65  and  _66
REMARK   31  A    between atoms: _66  and  _67
REMARK   32  A    between atoms: _67  and  _68
REMARK   33  A    between atoms: _72  and  _74
REMARK   34  A    between atoms: _74  and  _75
REMARK   35  A    between atoms: _74  and  _77
REMARK   36  A    between atoms: _77  and  _78
REMARK   37  A    between atoms: _81  and  _83
REMARK   38  A    between atoms: _83  and  _84
REMARK   39  A    between atoms: _83  and  _86
REMARK   40  A    between atoms: _86  and  _87
REMARK   41  A    between atoms: _90  and  _92
REMARK   42  A    between atoms: _92  and  _93
REMARK   43  A    between atoms: _92  and  _95
REMARK   44  A    between atoms: _95  and  _96
REMARK   45  A    between atoms: _99  and  _101
REMARK   46  A    between atoms: _101  and  _102
REMARK   47  A    between atoms: _101  and  _104
REMARK   48  A    between atoms: _104  and  _105
REMARK   49  A    between atoms: _108  and  _110
REMARK   50  A    between atoms: _110  and  _111
REMARK   51  A    between atoms: _110  and  _113
REMARK   52  A    between atoms: _113  and  _114
REMARK   53  A    between atoms: _119  and  _120
REMARK   54  A    between atoms: _122  and  _124
REMARK   55  A    between atoms: _124  and  _125
REMARK   56  A    between atoms: _124  and  _127
REMARK   57  A    between atoms: _127  and  _128
REMARK   58  A    between atoms: _128  and  _129
REMARK   59  A    between atoms: _129  and  _130
REMARK   60  A    between atoms: _130  and  _131
REMARK   61  A    between atoms: _135  and  _137
REMARK   62  A    between atoms: _137  and  _138
REMARK   63  A    between atoms: _137  and  _140
REMARK   64  A    between atoms: _140  and  _141
REMARK   65  A    between atoms: _143  and  _145
REMARK   66  A    between atoms: _145  and  _146
REMARK   67  A    between atoms: _145  and  _148
REMARK   68  A    between atoms: _151  and  _153
REMARK   69  A    between atoms: _153  and  _154
REMARK   70  A    between atoms: _153  and  _156
REMARK   71  A    between atoms: _156  and  _157
REMARK   72  A    between atoms: _160  and  _162
REMARK   73  A    between atoms: _162  and  _163
REMARK   74  A    between atoms: _162  and  _165
REMARK   75  A    between atoms: _165  and  _166
REMARK   76  A    between atoms: _169  and  _171
REMARK   77  A    between atoms: _171  and  _172
REMARK   78  A    between atoms: _171  and  _174
REMARK   79  A    between atoms: _174  and  _175
REMARK   80  A    between atoms: _179  and  _180
REMARK   81  A    between atoms: _185  and  _187
REMARK   82  A    between atoms: _187  and  _188
REMARK   83  A    between atoms: _187  and  _190
REMARK   84  A    between atoms: _190  and  _191
REMARK   85  A    between atoms: _194  and  _196
REMARK   86  A    between atoms: _196  and  _197
REMARK   87  A    between atoms: _196  and  _199
REMARK   88  A    between atoms: _202  and  _204
REMARK   89  A    between atoms: _204  and  _205
REMARK   90  A    between atoms: _207  and  _209
REMARK   91  A    between atoms: _209  and  _210
REMARK   92  A    between atoms: _209  and  _212
REMARK   93  A    between atoms: _212  and  _213
REMARK   94  A    between atoms: _219  and  _221
REMARK   95  A    between atoms: _221  and  _222
REMARK   96  A    between atoms: _221  and  _224
REMARK   97  A    between atoms: _224  and  _225
REMARK   98  A    between atoms: _230  and  _232
REMARK   99  A    between atoms: _232  and  _233
REMARK  100  A    between atoms: _232  and  _235
REMARK  101  A    between atoms: _235  and  _236
REMARK  102  A    between atoms: _239  and  _241
REMARK  103  A    between atoms: _241  and  _242
REMARK  104  A    between atoms: _241  and  _244
REMARK  105  A    between atoms: _247  and  _249
REMARK  106  A    between atoms: _249  and  _250
REMARK  107  A    between atoms: _252  and  _254
REMARK  108  A    between atoms: _254  and  _255
REMARK  109  A    between atoms: _257  and  _259
REMARK  110  A    between atoms: _259  and  _260
REMARK  111  A    between atoms: _259  and  _262
REMARK  112  A    between atoms: _262  and  _263
REMARK  113  A    between atoms: _266  and  _268
REMARK  114  A    between atoms: _268  and  _269
REMARK  115  A    between atoms: _268  and  _271
REMARK  116  A    between atoms: _271  and  _272
REMARK  117  A    between atoms: _275  and  _277
REMARK  118  A    between atoms: _277  and  _278
REMARK  119  A    between atoms: _277  and  _280
REMARK  120  A    between atoms: _280  and  _281
REMARK  121  A    between atoms: _284  and  _286
REMARK  122  A    between atoms: _286  and  _287
REMARK  123  A    between atoms: _286  and  _289
REMARK  124  A    between atoms: _289  and  _290
REMARK  125  A    between atoms: _290  and  _291
REMARK  126  A    between atoms: _291  and  _292
REMARK  127  A    between atoms: _301  and  _303
REMARK  128  A    between atoms: _303  and  _304
REMARK  129  A    between atoms: _303  and  _306
REMARK  130  A    between atoms: _306  and  _307
REMARK  131  A    between atoms: _317  and  _319
REMARK  132  A    between atoms: _319  and  _320
REMARK  133  A    between atoms: _319  and  _322
REMARK  134  A    between atoms: _325  and  _327
REMARK  135  A    between atoms: _327  and  _328
REMARK  136  A    between atoms: _327  and  _330
REMARK  137  A    between atoms: _333  and  _335
REMARK  138  A    between atoms: _335  and  _336
REMARK  139  A    between atoms: _335  and  _338
REMARK  140  A    between atoms: _338  and  _339
REMARK  141  A    between atoms: _342  and  _344
REMARK  142  A    between atoms: _344  and  _345
REMARK  143  A    between atoms: _344  and  _347
REMARK  144  A    between atoms: _349  and  _351
REMARK  145  A    between atoms: _351  and  _352
REMARK  146  A    between atoms: _355  and  _357
REMARK  147  A    between atoms: _357  and  _358
REMARK  148  A    between atoms: _357  and  _360
REMARK  149  A    between atoms: _360  and  _361
REMARK  150  A    between atoms: _361  and  _362
REMARK  151  A    between atoms: _362  and  _363
REMARK  152  A    between atoms: _372  and  _374
REMARK  153  A    between atoms: _374  and  _375
REMARK  154  A    between atoms: _378  and  _380
REMARK  155  A    between atoms: _380  and  _381
REMARK  156  A    between atoms: _380  and  _383
REMARK  157  A    between atoms: _383  and  _384
REMARK  158  A    between atoms: _389  and  _391
REMARK  159  A    between atoms: _391  and  _392
REMARK  160  A    between atoms: _391  and  _394
REMARK  161  A    between atoms: _394  and  _395
REMARK  162  A    between atoms: _395  and  _396
REMARK  163  A    between atoms: _396  and  _397
REMARK  164  A    between atoms: _397  and  _398
REMARK  165  A    between atoms: _402  and  _404
REMARK  166  A    between atoms: _404  and  _405
REMARK  167  A    between atoms: _404  and  _407
REMARK  168  A    between atoms: _407  and  _408
REMARK  169  A    between atoms: _408  and  _409
REMARK  170  A    between atoms: _414  and  _416
REMARK  171  A    between atoms: _416  and  _417
REMARK  172  A    between atoms: _416  and  _419
REMARK  173  A    between atoms: _419  and  _420
REMARK  174  A    between atoms: _423  and  _425
REMARK  175  A    between atoms: _425  and  _426
REMARK  176  A    between atoms: _425  and  _428
REMARK  177  A    between atoms: _428  and  _429
REMARK  178  A    between atoms: _433  and  _434
REMARK  179  A    between atoms: _439  and  _441
REMARK  180  A    between atoms: _441  and  _442
REMARK  181  A    between atoms: _441  and  _444
REMARK  182  A    between atoms: _444  and  _445
REMARK  183  A    between atoms: _447  and  _449
REMARK  184  A    between atoms: _449  and  _450
REMARK  185  A    between atoms: _449  and  _452
REMARK  186  A    between atoms: _454  and  _456
REMARK  187  A    between atoms: _456  and  _457
REMARK  188  A    between atoms: _460  and  _462
REMARK  189  A    between atoms: _462  and  _463
REMARK  190  A    between atoms: _462  and  _465
REMARK  191  A    between atoms: _465  and  _466
REMARK  192  A    between atoms: _469  and  _471
REMARK  193  A    between atoms: _471  and  _472
REMARK  194  A    between atoms: _471  and  _474
REMARK  195  A    between atoms: _474  and  _475
REMARK  196  A    between atoms: _477  and  _479
REMARK  197  A    between atoms: _479  and  _480
REMARK  198  A    between atoms: _482  and  _484
REMARK  199  A    between atoms: _484  and  _485
REMARK  200  A    between atoms: _484  and  _487
REMARK  201  A    between atoms: _487  and  _488
REMARK  202  A    between atoms: _491  and  _493
REMARK  203  A    between atoms: _493  and  _494
REMARK  204  A    between atoms: _493  and  _496
REMARK  205  A    between atoms: _496  and  _497
REMARK  206  A    between atoms: _500  and  _502
REMARK  207  A    between atoms: _502  and  _503
REMARK  208  A    between atoms: _502  and  _505
REMARK  209  A    between atoms: _505  and  _506
REMARK                            x       y       z     vdW  Elec       q    Type
REMARK                         _______ _______ _______ _____ _____    ______ ____
ROOT
ATOM      1  O   HOH     1      -9.752   7.161  63.283  0.00  0.00    +0.000 OA
ENDROOT
TORSDOF 0
REMARK  Name = ../refined-set-2016/4kax/4kax_pocket.pdb
REMARK  209 active torsions:
REMARK  status: ('A' for Active; 'I' for Inactive)
REMARK    1  A    between atoms: _1  and  _3
REMARK    2  A    between atoms: _3  and  _4
REMARK    3  A    between atoms: _3  and  _6
REMARK    4  A    between atoms: _6  and  _7
REMARK    5  A    between atoms: _7  and  _8
REMARK    6  A    between atoms: _10  and  _12
REMARK    7  A    between atoms: _12  and  _13
REMARK    8  A    between atoms: _12  and  _15
REMARK    9  A    between atoms: _15  and  _16
REMARK   10  A    between atoms: _19  and  _21
REMARK   11  A    between atoms: _21  and  _22
REMARK   12  A    between atoms: _24  and  _26
REMARK   13  A    between atoms: _26  and  _27
REMARK   14  A    between atoms: _26  and  _29
REMARK   15  A    between atoms: _29  and  _30
REMARK   16  A    between atoms: _33  and  _35
REMARK   17  A    between atoms: _35  and  _36
REMARK   18  A    between atoms: _35  and  _38
REMARK   19  A    between atoms: _38  and  _39
REMARK   20  A    between atoms: _42  and  _44
REMARK   21  A    between atoms: _44  and  _45
REMARK   22  A    between atoms: _48  and  _50
REMARK   23  A    between atoms: _50  and  _51
REMARK   24  A    between atoms: _54  and  _56
REMARK   25  A    between atoms: _56  and  _57
REMARK   26  A    between atoms: _59  and  _61
REMARK   27  A    between atoms: _61  and  _62
REMARK   28  A    between atoms: _61  and  _64
REMARK   29  A    between atoms: _64  and  _65
REMARK   30  A    between atoms: _65  and  _66
REMARK   31  A    between atoms: _66  and  _67
REMARK   32  A    between atoms: _67  and  _68
REMARK   33  A    between atoms: _72  and  _74
REMARK   34  A    between atoms: _74  and  _75
REMARK   35  A    between atoms: _74  and  _77
REMARK   36  A    between atoms: _77  and  _78
REMARK   37  A    between atoms: _81  and  _83
REMARK   38  A    between atoms: _83  and  _84
REMARK   39  A    between atoms: _83  and  _86
REMARK   40  A    between atoms: _86  and  _87
REMARK   41  A    between atoms: _90  and  _92
REMARK   42  A    between atoms: _92  and  _93
REMARK   43  A    between atoms: _92  and  _95
REMARK   44  A    between atoms: _95  and  _96
REMARK   45  A    between atoms: _99  and  _101
REMARK   46  A    between atoms: _101  and  _102
REMARK   47  A    between atoms: _101  and  _104
REMARK   48  A    between atoms: _104  and  _105
REMARK   49  A    between atoms: _108  and  _110
REMARK   50  A    between atoms: _110  and  _111
REMARK   51  A    between atoms: _110  and  _113
REMARK   52  A    between atoms: _113  and  _114
REMARK   53  A    between atoms: _119  and  _120
REMARK   54  A    between atoms: _122  and  _124
REMARK   55  A    between atoms: _124  and  _125
REMARK   56  A    between atoms: _124  and  _127
REMARK   57  A    between atoms: _127  and  _128
REMARK   58  A    between atoms: _128  and  _129
REMARK   59  A    between atoms: _129  and  _130
REMARK   60  A    between atoms: _130  and  _131
REMARK   61  A    between atoms: _135  and  _137
REMARK   62  A    between atoms: _137  and  _138
REMARK   63  A    between atoms: _137  and  _140
REMARK   64  A    between atoms: _140  and  _141
REMARK   65  A    between atoms: _143  and  _145
REMARK   66  A    between atoms: _145  and  _146
REMARK   67  A    between atoms: _145  and  _148
REMARK   68  A    between atoms: _151  and  _153
REMARK   69  A    between atoms: _153  and  _154
REMARK   70  A    between atoms: _153  and  _156
REMARK   71  A    between atoms: _156  and  _157
REMARK   72  A    between atoms: _160  and  _162
REMARK   73  A    between atoms: _162  and  _163
REMARK   74  A    between atoms: _162  and  _165
REMARK   75  A    between atoms: _165  and  _166
REMARK   76  A    between atoms: _169  and  _171
REMARK   77  A    between atoms: _171  and  _172
REMARK   78  A    between atoms: _171  and  _174
REMARK   79  A    between atoms: _174  and  _175
REMARK   80  A    between atoms: _179  and  _180
REMARK   81  A    between atoms: _185  and  _187
REMARK   82  A    between atoms: _187  and  _188
REMARK   83  A    between atoms: _187  and  _190
REMARK   84  A    between atoms: _190  and  _191
REMARK   85  A    between atoms: _194  and  _196
REMARK   86  A    between atoms: _196  and  _197
REMARK   87  A    between atoms: _196  and  _199
REMARK   88  A    between atoms: _202  and  _204
REMARK   89  A    between atoms: _204  and  _205
REMARK   90  A    between atoms: _207  and  _209
REMARK   91  A    between atoms: _209  and  _210
REMARK   92  A    between atoms: _209  and  _212
REMARK   93  A    between atoms: _212  and  _213
REMARK   94  A    between atoms: _219  and  _221
REMARK   95  A    between atoms: _221  and  _222
REMARK   96  A    between atoms: _221  and  _224
REMARK   97  A    between atoms: _224  and  _225
REMARK   98  A    between atoms: _230  and  _232
REMARK   99  A    between atoms: _232  and  _233
REMARK  100  A    between atoms: _232  and  _235
REMARK  101  A    between atoms: _235  and  _236
REMARK  102  A    between atoms: _239  and  _241
REMARK  103  A    between atoms: _241  and  _242
REMARK  104  A    between atoms: _241  and  _244
REMARK  105  A    between atoms: _247  and  _249
REMARK  106  A    between atoms: _249  and  _250
REMARK  107  A    between atoms: _252  and  _254
REMARK  108  A    between atoms: _254  and  _255
REMARK  109  A    between atoms: _257  and  _259
REMARK  110  A    between atoms: _259  and  _260
REMARK  111  A    between atoms: _259  and  _262
REMARK  112  A    between atoms: _262  and  _263
REMARK  113  A    between atoms: _266  and  _268
REMARK  114  A    between atoms: _268  and  _269
REMARK  115  A    between atoms: _268  and  _271
REMARK  116  A    between atoms: _271  and  _272
REMARK  117  A    between atoms: _275  and  _277
REMARK  118  A    between atoms: _277  and  _278
REMARK  119  A    between atoms: _277  and  _280
REMARK  120  A    between atoms: _280  and  _281
REMARK  121  A    between atoms: _284  and  _286
REMARK  122  A    between atoms: _286  and  _287
REMARK  123  A    between atoms: _286  and  _289
REMARK  124  A    between atoms: _289  and  _290
REMARK  125  A    between atoms: _290  and  _291
REMARK  126  A    between atoms: _291  and  _292
REMARK  127  A    between atoms: _301  and  _303
REMARK  128  A    between atoms: _303  and  _304
REMARK  129  A    between atoms: _303  and  _306
REMARK  130  A    between atoms: _306  and  _307
REMARK  131  A    between atoms: _317  and  _319
REMARK  132  A    between atoms: _319  and  _320
REMARK  133  A    between atoms: _319  and  _322
REMARK  134  A    between atoms: _325  and  _327
REMARK  135  A    between atoms: _327  and  _328
REMARK  136  A    between atoms: _327  and  _330
REMARK  137  A    between atoms: _333  and  _335
REMARK  138  A    between atoms: _335  and  _336
REMARK  139  A    between atoms: _335  and  _338
REMARK  140  A    between atoms: _338  and  _339
REMARK  141  A    between atoms: _342  and  _344
REMARK  142  A    between atoms: _344  and  _345
REMARK  143  A    between atoms: _344  and  _347
REMARK  144  A    between atoms: _349  and  _351
REMARK  145  A    between atoms: _351  and  _352
REMARK  146  A    between atoms: _355  and  _357
REMARK  147  A    between atoms: _357  and  _358
REMARK  148  A    between atoms: _357  and  _360
REMARK  149  A    between atoms: _360  and  _361
REMARK  150  A    between atoms: _361  and  _362
REMARK  151  A    between atoms: _362  and  _363
REMARK  152  A    between atoms: _372  and  _374
REMARK  153  A    between atoms: _374  and  _375
REMARK  154  A    between atoms: _378  and  _380
REMARK  155  A    between atoms: _380  and  _381
REMARK  156  A    between atoms: _380  and  _383
REMARK  157  A    between atoms: _383  and  _384
REMARK  158  A    between atoms: _389  and  _391
REMARK  159  A    between atoms: _391  and  _392
REMARK  160  A    between atoms: _391  and  _394
REMARK  161  A    between atoms: _394  and  _395
REMARK  162  A    between atoms: _395  and  _396
REMARK  163  A    between atoms: _396  and  _397
REMARK  164  A    between atoms: _397  and  _398
REMARK  165  A    between atoms: _402  and  _404
REMARK  166  A    between atoms: _404  and  _405
REMARK  167  A    between atoms: _404  and  _407
REMARK  168  A    between atoms: _407  and  _408
REMARK  169  A    between atoms: _408  and  _409
REMARK  170  A    between atoms: _414  and  _416
REMARK  171  A    between atoms: _416  and  _417
REMARK  172  A    between atoms: _416  and  _419
REMARK  173  A    between atoms: _419  and  _420
REMARK  174  A    between atoms: _423  and  _425
REMARK  175  A    between atoms: _425  and  _426
REMARK  176  A    between atoms: _425  and  _428
REMARK  177  A    between atoms: _428  and  _429
REMARK  178  A    between atoms: _433  and  _434
REMARK  179  A    between atoms: _439  and  _441
REMARK  180  A    between atoms: _441  and  _442
REMARK  181  A    between atoms: _441  and  _444
REMARK  182  A    between atoms: _444  and  _445
REMARK  183  A    between atoms: _447  and  _449
REMARK  184  A    between atoms: _449  and  _450
REMARK  185  A    between atoms: _449  and  _452
REMARK  186  A    between atoms: _454  and  _456
REMARK  187  A    between atoms: _456  and  _457
REMARK  188  A    between atoms: _460  and  _462
REMARK  189  A    between atoms: _462  and  _463
REMARK  190  A    between atoms: _462  and  _465
REMARK  191  A    between atoms: _465  and  _466
REMARK  192  A    between atoms: _469  and  _471
REMARK  193  A    between atoms: _471  and  _472
REMARK  194  A    between atoms: _471  and  _474
REMARK  195  A    between atoms: _474  and  _475
REMARK  196  A    between atoms: _477  and  _479
REMARK  197  A    between atoms: _479  and  _480
REMARK  198  A    between atoms: _482  and  _484
REMARK  199  A    between atoms: _484  and  _485
REMARK  200  A    between atoms: _484  and  _487
REMARK  201  A    between atoms: _487  and  _488
REMARK  202  A    between atoms: _491  and  _493
REMARK  203  A    between atoms: _493  and  _494
REMARK  204  A    between atoms: _493  and  _496
REMARK  205  A    between atoms: _496  and  _497
REMARK  206  A    between atoms: _500  and  _502
REMARK  207  A    between atoms: _502  and  _503
REMARK  208  A    between atoms: _502  and  _505
REMARK  209  A    between atoms: _505  and  _506
REMARK                            x       y       z     vdW  Elec       q    Type
REMARK                         _______ _______ _______ _____ _____    ______ ____
ROOT
ATOM      1  O   HOH     1     -12.123  -0.264  63.603  0.00  0.00    +0.000 OA
ENDROOT
TORSDOF 0
REMARK  Name = ../refined-set-2016/4kax/4kax_pocket.pdb
REMARK  209 active torsions:
REMARK  status: ('A' for Active; 'I' for Inactive)
REMARK    1  A    between atoms: _1  and  _3
REMARK    2  A    between atoms: _3  and  _4
REMARK    3  A    between atoms: _3  and  _6
REMARK    4  A    between atoms: _6  and  _7
REMARK    5  A    between atoms: _7  and  _8
REMARK    6  A    between atoms: _10  and  _12
REMARK    7  A    between atoms: _12  and  _13
REMARK    8  A    between atoms: _12  and  _15
REMARK    9  A    between atoms: _15  and  _16
REMARK   10  A    between atoms: _19  and  _21
REMARK   11  A    between atoms: _21  and  _22
REMARK   12  A    between atoms: _24  and  _26
REMARK   13  A    between atoms: _26  and  _27
REMARK   14  A    between atoms: _26  and  _29
REMARK   15  A    between atoms: _29  and  _30
REMARK   16  A    between atoms: _33  and  _35
REMARK   17  A    between atoms: _35  and  _36
REMARK   18  A    between atoms: _35  and  _38
REMARK   19  A    between atoms: _38  and  _39
REMARK   20  A    between atoms: _42  and  _44
REMARK   21  A    between atoms: _44  and  _45
REMARK   22  A    between atoms: _48  and  _50
REMARK   23  A    between atoms: _50  and  _51
REMARK   24  A    between atoms: _54  and  _56
REMARK   25  A    between atoms: _56  and  _57
REMARK   26  A    between atoms: _59  and  _61
REMARK   27  A    between atoms: _61  and  _62
REMARK   28  A    between atoms: _61  and  _64
REMARK   29  A    between atoms: _64  and  _65
REMARK   30  A    between atoms: _65  and  _66
REMARK   31  A    between atoms: _66  and  _67
REMARK   32  A    between atoms: _67  and  _68
REMARK   33  A    between atoms: _72  and  _74
REMARK   34  A    between atoms: _74  and  _75
REMARK   35  A    between atoms: _74  and  _77
REMARK   36  A    between atoms: _77  and  _78
REMARK   37  A    between atoms: _81  and  _83
REMARK   38  A    between atoms: _83  and  _84
REMARK   39  A    between atoms: _83  and  _86
REMARK   40  A    between atoms: _86  and  _87
REMARK   41  A    between atoms: _90  and  _92
REMARK   42  A    between atoms: _92  and  _93
REMARK   43  A    between atoms: _92  and  _95
REMARK   44  A    between atoms: _95  and  _96
REMARK   45  A    between atoms: _99  and  _101
REMARK   46  A    between atoms: _101  and  _102
REMARK   47  A    between atoms: _101  and  _104
REMARK   48  A    between atoms: _104  and  _105
REMARK   49  A    between atoms: _108  and  _110
REMARK   50  A    between atoms: _110  and  _111
REMARK   51  A    between atoms: _110  and  _113
REMARK   52  A    between atoms: _113  and  _114
REMARK   53  A    between atoms: _119  and  _120
REMARK   54  A    between atoms: _122  and  _124
REMARK   55  A    between atoms: _124  and  _125
REMARK   56  A    between atoms: _124  and  _127
REMARK   57  A    between atoms: _127  and  _128
REMARK   58  A    between atoms: _128  and  _129
REMARK   59  A    between atoms: _129  and  _130
REMARK   60  A    between atoms: _130  and  _131
REMARK   61  A    between atoms: _135  and  _137
REMARK   62  A    between atoms: _137  and  _138
REMARK   63  A    between atoms: _137  and  _140
REMARK   64  A    between atoms: _140  and  _141
REMARK   65  A    between atoms: _143  and  _145
REMARK   66  A    between atoms: _145  and  _146
REMARK   67  A    between atoms: _145  and  _148
REMARK   68  A    between atoms: _151  and  _153
REMARK   69  A    between atoms: _153  and  _154
REMARK   70  A    between atoms: _153  and  _156
REMARK   71  A    between atoms: _156  and  _157
REMARK   72  A    between atoms: _160  and  _162
REMARK   73  A    between atoms: _162  and  _163
REMARK   74  A    between atoms: _162  and  _165
REMARK   75  A    between atoms: _165  and  _166
REMARK   76  A    between atoms: _169  and  _171
REMARK   77  A    between atoms: _171  and  _172
REMARK   78  A    between atoms: _171  and  _174
REMARK   79  A    between atoms: _174  and  _175
REMARK   80  A    between atoms: _179  and  _180
REMARK   81  A    between atoms: _185  and  _187
REMARK   82  A    between atoms: _187  and  _188
REMARK   83  A    between atoms: _187  and  _190
REMARK   84  A    between atoms: _190  and  _191
REMARK   85  A    between atoms: _194  and  _196
REMARK   86  A    between atoms: _196  and  _197
REMARK   87  A    between atoms: _196  and  _199
REMARK   88  A    between atoms: _202  and  _204
REMARK   89  A    between atoms: _204  and  _205
REMARK   90  A    between atoms: _207  and  _209
REMARK   91  A    between atoms: _209  and  _210
REMARK   92  A    between atoms: _209  and  _212
REMARK   93  A    between atoms: _212  and  _213
REMARK   94  A    between atoms: _219  and  _221
REMARK   95  A    between atoms: _221  and  _222
REMARK   96  A    between atoms: _221  and  _224
REMARK   97  A    between atoms: _224  and  _225
REMARK   98  A    between atoms: _230  and  _232
REMARK   99  A    between atoms: _232  and  _233
REMARK  100  A    between atoms: _232  and  _235
REMARK  101  A    between atoms: _235  and  _236
REMARK  102  A    between atoms: _239  and  _241
REMARK  103  A    between atoms: _241  and  _242
REMARK  104  A    between atoms: _241  and  _244
REMARK  105  A    between atoms: _247  and  _249
REMARK  106  A    between atoms: _249  and  _250
REMARK  107  A    between atoms: _252  and  _254
REMARK  108  A    between atoms: _254  and  _255
REMARK  109  A    between atoms: _257  and  _259
REMARK  110  A    between atoms: _259  and  _260
REMARK  111  A    between atoms: _259  and  _262
REMARK  112  A    between atoms: _262  and  _263
REMARK  113  A    between atoms: _266  and  _268
REMARK  114  A    between atoms: _268  and  _269
REMARK  115  A    between atoms: _268  and  _271
REMARK  116  A    between atoms: _271  and  _272
REMARK  117  A    between atoms: _275  and  _277
REMARK  118  A    between atoms: _277  and  _278
REMARK  119  A    between atoms: _277  and  _280
REMARK  120  A    between atoms: _280  and  _281
REMARK  121  A    between atoms: _284  and  _286
REMARK  122  A    between atoms: _286  and  _287
REMARK  123  A    between atoms: _286  and  _289
REMARK  124  A    between atoms: _289  and  _290
REMARK  125  A    between atoms: _290  and  _291
REMARK  126  A    between atoms: _291  and  _292
REMARK  127  A    between atoms: _301  and  _303
REMARK  128  A    between atoms: _303  and  _304
REMARK  129  A    between atoms: _303  and  _306
REMARK  130  A    between atoms: _306  and  _307
REMARK  131  A    between atoms: _317  and  _319
REMARK  132  A    between atoms: _319  and  _320
REMARK  133  A    between atoms: _319  and  _322
REMARK  134  A    between atoms: _325  and  _327
REMARK  135  A    between atoms: _327  and  _328
REMARK  136  A    between atoms: _327  and  _330
REMARK  137  A    between atoms: _333  and  _335
REMARK  138  A    between atoms: _335  and  _336
REMARK  139  A    between atoms: _335  and  _338
REMARK  140  A    between atoms: _338  and  _339
REMARK  141  A    between atoms: _342  and  _344
REMARK  142  A    between atoms: _344  and  _345
REMARK  143  A    between atoms: _344  and  _347
REMARK  144  A    between atoms: _349  and  _351
REMARK  145  A    between atoms: _351  and  _352
REMARK  146  A    between atoms: _355  and  _357
REMARK  147  A    between atoms: _357  and  _358
REMARK  148  A    between atoms: _357  and  _360
REMARK  149  A    between atoms: _360  and  _361
REMARK  150  A    between atoms: _361  and  _362
REMARK  151  A    between atoms: _362  and  _363
REMARK  152  A    between atoms: _372  and  _374
REMARK  153  A    between atoms: _374  and  _375
REMARK  154  A    between atoms: _378  and  _380
REMARK  155  A    between atoms: _380  and  _381
REMARK  156  A    between atoms: _380  and  _383
REMARK  157  A    between atoms: _383  and  _384
REMARK  158  A    between atoms: _389  and  _391
REMARK  159  A    between atoms: _391  and  _392
REMARK  160  A    between atoms: _391  and  _394
REMARK  161  A    between atoms: _394  and  _395
REMARK  162  A    between atoms: _395  and  _396
REMARK  163  A    between atoms: _396  and  _397
REMARK  164  A    between atoms: _397  and  _398
REMARK  165  A    between atoms: _402  and  _404
REMARK  166  A    between atoms: _404  and  _405
REMARK  167  A    between atoms: _404  and  _407
REMARK  168  A    between atoms: _407  and  _408
REMARK  169  A    between atoms: _408  and  _409
REMARK  170  A    between atoms: _414  and  _416
REMARK  171  A    between atoms: _416  and  _417
REMARK  172  A    between atoms: _416  and  _419
REMARK  173  A    between atoms: _419  and  _420
REMARK  174  A    between atoms: _423  and  _425
REMARK  175  A    between atoms: _425  and  _426
REMARK  176  A    between atoms: _425  and  _428
REMARK  177  A    between atoms: _428  and  _429
REMARK  178  A    between atoms: _433  and  _434
REMARK  179  A    between atoms: _439  and  _441
REMARK  180  A    between atoms: _441  and  _442
REMARK  181  A    between atoms: _441  and  _444
REMARK  182  A    between atoms: _444  and  _445
REMARK  183  A    between atoms: _447  and  _449
REMARK  184  A    between atoms: _449  and  _450
REMARK  185  A    between atoms: _449  and  _452
REMARK  186  A    between atoms: _454  and  _456
REMARK  187  A    between atoms: _456  and  _457
REMARK  188  A    between atoms: _460  and  _462
REMARK  189  A    between atoms: _462  and  _463
REMARK  190  A    between atoms: _462  and  _465
REMARK  191  A    between atoms: _465  and  _466
REMARK  192  A    between atoms: _469  and  _471
REMARK  193  A    between atoms: _471  and  _472
REMARK  194  A    between atoms: _471  and  _474
REMARK  195  A    between atoms: _474  and  _475
REMARK  196  A    between atoms: _477  and  _479
REMARK  197  A    between atoms: _479  and  _480
REMARK  198  A    between atoms: _482  and  _484
REMARK  199  A    between atoms: _484  and  _485
REMARK  200  A    between atoms: _484  and  _487
REMARK  201  A    between atoms: _487  and  _488
REMARK  202  A    between atoms: _491  and  _493
REMARK  203  A    between atoms: _493  and  _494
REMARK  204  A    between atoms: _493  and  _496
REMARK  205  A    between atoms: _496  and  _497
REMARK  206  A    between atoms: _500  and  _502
REMARK  207  A    between atoms: _502  and  _503
REMARK  208  A    between atoms: _502  and  _505
REMARK  209  A    between atoms: _505  and  _506
REMARK                            x       y       z     vdW  Elec       q    Type
REMARK                         _______ _______ _______ _____ _____    ______ ____
ROOT
ATOM      1  O   HOH     1       2.870  13.842  47.839  0.00  0.00    +0.000 OA
ENDROOT
TORSDOF 0
REMARK  Name = ../refined-set-2016/4kax/4kax_pocket.pdb
REMARK  209 active torsions:
REMARK  status: ('A' for Active; 'I' for Inactive)
REMARK    1  A    between atoms: _1  and  _3
REMARK    2  A    between atoms: _3  and  _4
REMARK    3  A    between atoms: _3  and  _6
REMARK    4  A    between atoms: _6  and  _7
REMARK    5  A    between atoms: _7  and  _8
REMARK    6  A    between atoms: _10  and  _12
REMARK    7  A    between atoms: _12  and  _13
REMARK    8  A    between atoms: _12  and  _15
REMARK    9  A    between atoms: _15  and  _16
REMARK   10  A    between atoms: _19  and  _21
REMARK   11  A    between atoms: _21  and  _22
REMARK   12  A    between atoms: _24  and  _26
REMARK   13  A    between atoms: _26  and  _27
REMARK   14  A    between atoms: _26  and  _29
REMARK   15  A    between atoms: _29  and  _30
REMARK   16  A    between atoms: _33  and  _35
REMARK   17  A    between atoms: _35  and  _36
REMARK   18  A    between atoms: _35  and  _38
REMARK   19  A    between atoms: _38  and  _39
REMARK   20  A    between atoms: _42  and  _44
REMARK   21  A    between atoms: _44  and  _45
REMARK   22  A    between atoms: _48  and  _50
REMARK   23  A    between atoms: _50  and  _51
REMARK   24  A    between atoms: _54  and  _56
REMARK   25  A    between atoms: _56  and  _57
REMARK   26  A    between atoms: _59  and  _61
REMARK   27  A    between atoms: _61  and  _62
REMARK   28  A    between atoms: _61  and  _64
REMARK   29  A    between atoms: _64  and  _65
REMARK   30  A    between atoms: _65  and  _66
REMARK   31  A    between atoms: _66  and  _67
REMARK   32  A    between atoms: _67  and  _68
REMARK   33  A    between atoms: _72  and  _74
REMARK   34  A    between atoms: _74  and  _75
REMARK   35  A    between atoms: _74  and  _77
REMARK   36  A    between atoms: _77  and  _78
REMARK   37  A    between atoms: _81  and  _83
REMARK   38  A    between atoms: _83  and  _84
REMARK   39  A    between atoms: _83  and  _86
REMARK   40  A    between atoms: _86  and  _87
REMARK   41  A    between atoms: _90  and  _92
REMARK   42  A    between atoms: _92  and  _93
REMARK   43  A    between atoms: _92  and  _95
REMARK   44  A    between atoms: _95  and  _96
REMARK   45  A    between atoms: _99  and  _101
REMARK   46  A    between atoms: _101  and  _102
REMARK   47  A    between atoms: _101  and  _104
REMARK   48  A    between atoms: _104  and  _105
REMARK   49  A    between atoms: _108  and  _110
REMARK   50  A    between atoms: _110  and  _111
REMARK   51  A    between atoms: _110  and  _113
REMARK   52  A    between atoms: _113  and  _114
REMARK   53  A    between atoms: _119  and  _120
REMARK   54  A    between atoms: _122  and  _124
REMARK   55  A    between atoms: _124  and  _125
REMARK   56  A    between atoms: _124  and  _127
REMARK   57  A    between atoms: _127  and  _128
REMARK   58  A    between atoms: _128  and  _129
REMARK   59  A    between atoms: _129  and  _130
REMARK   60  A    between atoms: _130  and  _131
REMARK   61  A    between atoms: _135  and  _137
REMARK   62  A    between atoms: _137  and  _138
REMARK   63  A    between atoms: _137  and  _140
REMARK   64  A    between atoms: _140  and  _141
REMARK   65  A    between atoms: _143  and  _145
REMARK   66  A    between atoms: _145  and  _146
REMARK   67  A    between atoms: _145  and  _148
REMARK   68  A    between atoms: _151  and  _153
REMARK   69  A    between atoms: _153  and  _154
REMARK   70  A    between atoms: _153  and  _156
REMARK   71  A    between atoms: _156  and  _157
REMARK   72  A    between atoms: _160  and  _162
REMARK   73  A    between atoms: _162  and  _163
REMARK   74  A    between atoms: _162  and  _165
REMARK   75  A    between atoms: _165  and  _166
REMARK   76  A    between atoms: _169  and  _171
REMARK   77  A    between atoms: _171  and  _172
REMARK   78  A    between atoms: _171  and  _174
REMARK   79  A    between atoms: _174  and  _175
REMARK   80  A    between atoms: _179  and  _180
REMARK   81  A    between atoms: _185  and  _187
REMARK   82  A    between atoms: _187  and  _188
REMARK   83  A    between atoms: _187  and  _190
REMARK   84  A    between atoms: _190  and  _191
REMARK   85  A    between atoms: _194  and  _196
REMARK   86  A    between atoms: _196  and  _197
REMARK   87  A    between atoms: _196  and  _199
REMARK   88  A    between atoms: _202  and  _204
REMARK   89  A    between atoms: _204  and  _205
REMARK   90  A    between atoms: _207  and  _209
REMARK   91  A    between atoms: _209  and  _210
REMARK   92  A    between atoms: _209  and  _212
REMARK   93  A    between atoms: _212  and  _213
REMARK   94  A    between atoms: _219  and  _221
REMARK   95  A    between atoms: _221  and  _222
REMARK   96  A    between atoms: _221  and  _224
REMARK   97  A    between atoms: _224  and  _225
REMARK   98  A    between atoms: _230  and  _232
REMARK   99  A    between atoms: _232  and  _233
REMARK  100  A    between atoms: _232  and  _235
REMARK  101  A    between atoms: _235  and  _236
REMARK  102  A    between atoms: _239  and  _241
REMARK  103  A    between atoms: _241  and  _242
REMARK  104  A    between atoms: _241  and  _244
REMARK  105  A    between atoms: _247  and  _249
REMARK  106  A    between atoms: _249  and  _250
REMARK  107  A    between atoms: _252  and  _254
REMARK  108  A    between atoms: _254  and  _255
REMARK  109  A    between atoms: _257  and  _259
REMARK  110  A    between atoms: _259  and  _260
REMARK  111  A    between atoms: _259  and  _262
REMARK  112  A    between atoms: _262  and  _263
REMARK  113  A    between atoms: _266  and  _268
REMARK  114  A    between atoms: _268  and  _269
REMARK  115  A    between atoms: _268  and  _271
REMARK  116  A    between atoms: _271  and  _272
REMARK  117  A    between atoms: _275  and  _277
REMARK  118  A    between atoms: _277  and  _278
REMARK  119  A    between atoms: _277  and  _280
REMARK  120  A    between atoms: _280  and  _281
REMARK  121  A    between atoms: _284  and  _286
REMARK  122  A    between atoms: _286  and  _287
REMARK  123  A    between atoms: _286  and  _289
REMARK  124  A    between atoms: _289  and  _290
REMARK  125  A    between atoms: _290  and  _291
REMARK  126  A    between atoms: _291  and  _292
REMARK  127  A    between atoms: _301  and  _303
REMARK  128  A    between atoms: _303  and  _304
REMARK  129  A    between atoms: _303  and  _306
REMARK  130  A    between atoms: _306  and  _307
REMARK  131  A    between atoms: _317  and  _319
REMARK  132  A    between atoms: _319  and  _320
REMARK  133  A    between atoms: _319  and  _322
REMARK  134  A    between atoms: _325  and  _327
REMARK  135  A    between atoms: _327  and  _328
REMARK  136  A    between atoms: _327  and  _330
REMARK  137  A    between atoms: _333  and  _335
REMARK  138  A    between atoms: _335  and  _336
REMARK  139  A    between atoms: _335  and  _338
REMARK  140  A    between atoms: _338  and  _339
REMARK  141  A    between atoms: _342  and  _344
REMARK  142  A    between atoms: _344  and  _345
REMARK  143  A    between atoms: _344  and  _347
REMARK  144  A    between atoms: _349  and  _351
REMARK  145  A    between atoms: _351  and  _352
REMARK  146  A    between atoms: _355  and  _357
REMARK  147  A    between atoms: _357  and  _358
REMARK  148  A    between atoms: _357  and  _360
REMARK  149  A    between atoms: _360  and  _361
REMARK  150  A    between atoms: _361  and  _362
REMARK  151  A    between atoms: _362  and  _363
REMARK  152  A    between atoms: _372  and  _374
REMARK  153  A    between atoms: _374  and  _375
REMARK  154  A    between atoms: _378  and  _380
REMARK  155  A    between atoms: _380  and  _381
REMARK  156  A    between atoms: _380  and  _383
REMARK  157  A    between atoms: _383  and  _384
REMARK  158  A    between atoms: _389  and  _391
REMARK  159  A    between atoms: _391  and  _392
REMARK  160  A    between atoms: _391  and  _394
REMARK  161  A    between atoms: _394  and  _395
REMARK  162  A    between atoms: _395  and  _396
REMARK  163  A    between atoms: _396  and  _397
REMARK  164  A    between atoms: _397  and  _398
REMARK  165  A    between atoms: _402  and  _404
REMARK  166  A    between atoms: _404  and  _405
REMARK  167  A    between atoms: _404  and  _407
REMARK  168  A    between atoms: _407  and  _408
REMARK  169  A    between atoms: _408  and  _409
REMARK  170  A    between atoms: _414  and  _416
REMARK  171  A    between atoms: _416  and  _417
REMARK  172  A    between atoms: _416  and  _419
REMARK  173  A    between atoms: _419  and  _420
REMARK  174  A    between atoms: _423  and  _425
REMARK  175  A    between atoms: _425  and  _426
REMARK  176  A    between atoms: _425  and  _428
REMARK  177  A    between atoms: _428  and  _429
REMARK  178  A    between atoms: _433  and  _434
REMARK  179  A    between atoms: _439  and  _441
REMARK  180  A    between atoms: _441  and  _442
REMARK  181  A    between atoms: _441  and  _444
REMARK  182  A    between atoms: _444  and  _445
REMARK  183  A    between atoms: _447  and  _449
REMARK  184  A    between atoms: _449  and  _450
REMARK  185  A    between atoms: _449  and  _452
REMARK  186  A    between atoms: _454  and  _456
REMARK  187  A    between atoms: _456  and  _457
REMARK  188  A    between atoms: _460  and  _462
REMARK  189  A    between atoms: _462  and  _463
REMARK  190  A    between atoms: _462  and  _465
REMARK  191  A    between atoms: _465  and  _466
REMARK  192  A    between atoms: _469  and  _471
REMARK  193  A    between atoms: _471  and  _472
REMARK  194  A    between atoms: _471  and  _474
REMARK  195  A    between atoms: _474  and  _475
REMARK  196  A    between atoms: _477  and  _479
REMARK  197  A    between atoms: _479  and  _480
REMARK  198  A    between atoms: _482  and  _484
REMARK  199  A    between atoms: _484  and  _485
REMARK  200  A    between atoms: _484  and  _487
REMARK  201  A    between atoms: _487  and  _488
REMARK  202  A    between atoms: _491  and  _493
REMARK  203  A    between atoms: _493  and  _494
REMARK  204  A    between atoms: _493  and  _496
REMARK  205  A    between atoms: _496  and  _497
REMARK  206  A    between atoms: _500  and  _502
REMARK  207  A    between atoms: _502  and  _503
REMARK  208  A    between atoms: _502  and  _505
REMARK  209  A    between atoms: _505  and  _506
REMARK                            x       y       z     vdW  Elec       q    Type
REMARK                         _______ _______ _______ _____ _____    ______ ____
ROOT
ATOM      1  O   HOH     1      -1.907  15.473  49.029  0.00  0.00    +0.000 OA
ENDROOT
TORSDOF 0
REMARK  Name = ../refined-set-2016/4kax/4kax_pocket.pdb
REMARK  209 active torsions:
REMARK  status: ('A' for Active; 'I' for Inactive)
REMARK    1  A    between atoms: _1  and  _3
REMARK    2  A    between atoms: _3  and  _4
REMARK    3  A    between atoms: _3  and  _6
REMARK    4  A    between atoms: _6  and  _7
REMARK    5  A    between atoms: _7  and  _8
REMARK    6  A    between atoms: _10  and  _12
REMARK    7  A    between atoms: _12  and  _13
REMARK    8  A    between atoms: _12  and  _15
REMARK    9  A    between atoms: _15  and  _16
REMARK   10  A    between atoms: _19  and  _21
REMARK   11  A    between atoms: _21  and  _22
REMARK   12  A    between atoms: _24  and  _26
REMARK   13  A    between atoms: _26  and  _27
REMARK   14  A    between atoms: _26  and  _29
REMARK   15  A    between atoms: _29  and  _30
REMARK   16  A    between atoms: _33  and  _35
REMARK   17  A    between atoms: _35  and  _36
REMARK   18  A    between atoms: _35  and  _38
REMARK   19  A    between atoms: _38  and  _39
REMARK   20  A    between atoms: _42  and  _44
REMARK   21  A    between atoms: _44  and  _45
REMARK   22  A    between atoms: _48  and  _50
REMARK   23  A    between atoms: _50  and  _51
REMARK   24  A    between atoms: _54  and  _56
REMARK   25  A    between atoms: _56  and  _57
REMARK   26  A    between atoms: _59  and  _61
REMARK   27  A    between atoms: _61  and  _62
REMARK   28  A    between atoms: _61  and  _64
REMARK   29  A    between atoms: _64  and  _65
REMARK   30  A    between atoms: _65  and  _66
REMARK   31  A    between atoms: _66  and  _67
REMARK   32  A    between atoms: _67  and  _68
REMARK   33  A    between atoms: _72  and  _74
REMARK   34  A    between atoms: _74  and  _75
REMARK   35  A    between atoms: _74  and  _77
REMARK   36  A    between atoms: _77  and  _78
REMARK   37  A    between atoms: _81  and  _83
REMARK   38  A    between atoms: _83  and  _84
REMARK   39  A    between atoms: _83  and  _86
REMARK   40  A    between atoms: _86  and  _87
REMARK   41  A    between atoms: _90  and  _92
REMARK   42  A    between atoms: _92  and  _93
REMARK   43  A    between atoms: _92  and  _95
REMARK   44  A    between atoms: _95  and  _96
REMARK   45  A    between atoms: _99  and  _101
REMARK   46  A    between atoms: _101  and  _102
REMARK   47  A    between atoms: _101  and  _104
REMARK   48  A    between atoms: _104  and  _105
REMARK   49  A    between atoms: _108  and  _110
REMARK   50  A    between atoms: _110  and  _111
REMARK   51  A    between atoms: _110  and  _113
REMARK   52  A    between atoms: _113  and  _114
REMARK   53  A    between atoms: _119  and  _120
REMARK   54  A    between atoms: _122  and  _124
REMARK   55  A    between atoms: _124  and  _125
REMARK   56  A    between atoms: _124  and  _127
REMARK   57  A    between atoms: _127  and  _128
REMARK   58  A    between atoms: _128  and  _129
REMARK   59  A    between atoms: _129  and  _130
REMARK   60  A    between atoms: _130  and  _131
REMARK   61  A    between atoms: _135  and  _137
REMARK   62  A    between atoms: _137  and  _138
REMARK   63  A    between atoms: _137  and  _140
REMARK   64  A    between atoms: _140  and  _141
REMARK   65  A    between atoms: _143  and  _145
REMARK   66  A    between atoms: _145  and  _146
REMARK   67  A    between atoms: _145  and  _148
REMARK   68  A    between atoms: _151  and  _153
REMARK   69  A    between atoms: _153  and  _154
REMARK   70  A    between atoms: _153  and  _156
REMARK   71  A    between atoms: _156  and  _157
REMARK   72  A    between atoms: _160  and  _162
REMARK   73  A    between atoms: _162  and  _163
REMARK   74  A    between atoms: _162  and  _165
REMARK   75  A    between atoms: _165  and  _166
REMARK   76  A    between atoms: _169  and  _171
REMARK   77  A    between atoms: _171  and  _172
REMARK   78  A    between atoms: _171  and  _174
REMARK   79  A    between atoms: _174  and  _175
REMARK   80  A    between atoms: _179  and  _180
REMARK   81  A    between atoms: _185  and  _187
REMARK   82  A    between atoms: _187  and  _188
REMARK   83  A    between atoms: _187  and  _190
REMARK   84  A    between atoms: _190  and  _191
REMARK   85  A    between atoms: _194  and  _196
REMARK   86  A    between atoms: _196  and  _197
REMARK   87  A    between atoms: _196  and  _199
REMARK   88  A    between atoms: _202  and  _204
REMARK   89  A    between atoms: _204  and  _205
REMARK   90  A    between atoms: _207  and  _209
REMARK   91  A    between atoms: _209  and  _210
REMARK   92  A    between atoms: _209  and  _212
REMARK   93  A    between atoms: _212  and  _213
REMARK   94  A    between atoms: _219  and  _221
REMARK   95  A    between atoms: _221  and  _222
REMARK   96  A    between atoms: _221  and  _224
REMARK   97  A    between atoms: _224  and  _225
REMARK   98  A    between atoms: _230  and  _232
REMARK   99  A    between atoms: _232  and  _233
REMARK  100  A    between atoms: _232  and  _235
REMARK  101  A    between atoms: _235  and  _236
REMARK  102  A    between atoms: _239  and  _241
REMARK  103  A    between atoms: _241  and  _242
REMARK  104  A    between atoms: _241  and  _244
REMARK  105  A    between atoms: _247  and  _249
REMARK  106  A    between atoms: _249  and  _250
REMARK  107  A    between atoms: _252  and  _254
REMARK  108  A    between atoms: _254  and  _255
REMARK  109  A    between atoms: _257  and  _259
REMARK  110  A    between atoms: _259  and  _260
REMARK  111  A    between atoms: _259  and  _262
REMARK  112  A    between atoms: _262  and  _263
REMARK  113  A    between atoms: _266  and  _268
REMARK  114  A    between atoms: _268  and  _269
REMARK  115  A    between atoms: _268  and  _271
REMARK  116  A    between atoms: _271  and  _272
REMARK  117  A    between atoms: _275  and  _277
REMARK  118  A    between atoms: _277  and  _278
REMARK  119  A    between atoms: _277  and  _280
REMARK  120  A    between atoms: _280  and  _281
REMARK  121  A    between atoms: _284  and  _286
REMARK  122  A    between atoms: _286  and  _287
REMARK  123  A    between atoms: _286  and  _289
REMARK  124  A    between atoms: _289  and  _290
REMARK  125  A    between atoms: _290  and  _291
REMARK  126  A    between atoms: _291  and  _292
REMARK  127  A    between atoms: _301  and  _303
REMARK  128  A    between atoms: _303  and  _304
REMARK  129  A    between atoms: _303  and  _306
REMARK  130  A    between atoms: _306  and  _307
REMARK  131  A    between atoms: _317  and  _319
REMARK  132  A    between atoms: _319  and  _320
REMARK  133  A    between atoms: _319  and  _322
REMARK  134  A    between atoms: _325  and  _327
REMARK  135  A    between atoms: _327  and  _328
REMARK  136  A    between atoms: _327  and  _330
REMARK  137  A    between atoms: _333  and  _335
REMARK  138  A    between atoms: _335  and  _336
REMARK  139  A    between atoms: _335  and  _338
REMARK  140  A    between atoms: _338  and  _339
REMARK  141  A    between atoms: _342  and  _344
REMARK  142  A    between atoms: _344  and  _345
REMARK  143  A    between atoms: _344  and  _347
REMARK  144  A    between atoms: _349  and  _351
REMARK  145  A    between atoms: _351  and  _352
REMARK  146  A    between atoms: _355  and  _357
REMARK  147  A    between atoms: _357  and  _358
REMARK  148  A    between atoms: _357  and  _360
REMARK  149  A    between atoms: _360  and  _361
REMARK  150  A    between atoms: _361  and  _362
REMARK  151  A    between atoms: _362  and  _363
REMARK  152  A    between atoms: _372  and  _374
REMARK  153  A    between atoms: _374  and  _375
REMARK  154  A    between atoms: _378  and  _380
REMARK  155  A    between atoms: _380  and  _381
REMARK  156  A    between atoms: _380  and  _383
REMARK  157  A    between atoms: _383  and  _384
REMARK  158  A    between atoms: _389  and  _391
REMARK  159  A    between atoms: _391  and  _392
REMARK  160  A    between atoms: _391  and  _394
REMARK  161  A    between atoms: _394  and  _395
REMARK  162  A    between atoms: _395  and  _396
REMARK  163  A    between atoms: _396  and  _397
REMARK  164  A    between atoms: _397  and  _398
REMARK  165  A    between atoms: _402  and  _404
REMARK  166  A    between atoms: _404  and  _405
REMARK  167  A    between atoms: _404  and  _407
REMARK  168  A    between atoms: _407  and  _408
REMARK  169  A    between atoms: _408  and  _409
REMARK  170  A    between atoms: _414  and  _416
REMARK  171  A    between atoms: _416  and  _417
REMARK  172  A    between atoms: _416  and  _419
REMARK  173  A    between atoms: _419  and  _420
REMARK  174  A    between atoms: _423  and  _425
REMARK  175  A    between atoms: _425  and  _426
REMARK  176  A    between atoms: _425  and  _428
REMARK  177  A    between atoms: _428  and  _429
REMARK  178  A    between atoms: _433  and  _434
REMARK  179  A    between atoms: _439  and  _441
REMARK  180  A    between atoms: _441  and  _442
REMARK  181  A    between atoms: _441  and  _444
REMARK  182  A    between atoms: _444  and  _445
REMARK  183  A    between atoms: _447  and  _449
REMARK  184  A    between atoms: _449  and  _450
REMARK  185  A    between atoms: _449  and  _452
REMARK  186  A    between atoms: _454  and  _456
REMARK  187  A    between atoms: _456  and  _457
REMARK  188  A    between atoms: _460  and  _462
REMARK  189  A    between atoms: _462  and  _463
REMARK  190  A    between atoms: _462  and  _465
REMARK  191  A    between atoms: _465  and  _466
REMARK  192  A    between atoms: _469  and  _471
REMARK  193  A    between atoms: _471  and  _472
REMARK  194  A    between atoms: _471  and  _474
REMARK  195  A    between atoms: _474  and  _475
REMARK  196  A    between atoms: _477  and  _479
REMARK  197  A    between atoms: _479  and  _480
REMARK  198  A    between atoms: _482  and  _484
REMARK  199  A    between atoms: _484  and  _485
REMARK  200  A    between atoms: _484  and  _487
REMARK  201  A    between atoms: _487  and  _488
REMARK  202  A    between atoms: _491  and  _493
REMARK  203  A    between atoms: _493  and  _494
REMARK  204  A    between atoms: _493  and  _496
REMARK  205  A    between atoms: _496  and  _497
REMARK  206  A    between atoms: _500  and  _502
REMARK  207  A    between atoms: _502  and  _503
REMARK  208  A    between atoms: _502  and  _505
REMARK  209  A    between atoms: _505  and  _506
REMARK                            x       y       z     vdW  Elec       q    Type
REMARK                         _______ _______ _______ _____ _____    ______ ____
ROOT
ATOM      1  O   HOH     1      -2.206  10.698  66.743  0.00  0.00    +0.000 OA
ENDROOT
TORSDOF 0
REMARK  Name = ../refined-set-2016/4kax/4kax_pocket.pdb
REMARK  209 active torsions:
REMARK  status: ('A' for Active; 'I' for Inactive)
REMARK    1  A    between atoms: _1  and  _3
REMARK    2  A    between atoms: _3  and  _4
REMARK    3  A    between atoms: _3  and  _6
REMARK    4  A    between atoms: _6  and  _7
REMARK    5  A    between atoms: _7  and  _8
REMARK    6  A    between atoms: _10  and  _12
REMARK    7  A    between atoms: _12  and  _13
REMARK    8  A    between atoms: _12  and  _15
REMARK    9  A    between atoms: _15  and  _16
REMARK   10  A    between atoms: _19  and  _21
REMARK   11  A    between atoms: _21  and  _22
REMARK   12  A    between atoms: _24  and  _26
REMARK   13  A    between atoms: _26  and  _27
REMARK   14  A    between atoms: _26  and  _29
REMARK   15  A    between atoms: _29  and  _30
REMARK   16  A    between atoms: _33  and  _35
REMARK   17  A    between atoms: _35  and  _36
REMARK   18  A    between atoms: _35  and  _38
REMARK   19  A    between atoms: _38  and  _39
REMARK   20  A    between atoms: _42  and  _44
REMARK   21  A    between atoms: _44  and  _45
REMARK   22  A    between atoms: _48  and  _50
REMARK   23  A    between atoms: _50  and  _51
REMARK   24  A    between atoms: _54  and  _56
REMARK   25  A    between atoms: _56  and  _57
REMARK   26  A    between atoms: _59  and  _61
REMARK   27  A    between atoms: _61  and  _62
REMARK   28  A    between atoms: _61  and  _64
REMARK   29  A    between atoms: _64  and  _65
REMARK   30  A    between atoms: _65  and  _66
REMARK   31  A    between atoms: _66  and  _67
REMARK   32  A    between atoms: _67  and  _68
REMARK   33  A    between atoms: _72  and  _74
REMARK   34  A    between atoms: _74  and  _75
REMARK   35  A    between atoms: _74  and  _77
REMARK   36  A    between atoms: _77  and  _78
REMARK   37  A    between atoms: _81  and  _83
REMARK   38  A    between atoms: _83  and  _84
REMARK   39  A    between atoms: _83  and  _86
REMARK   40  A    between atoms: _86  and  _87
REMARK   41  A    between atoms: _90  and  _92
REMARK   42  A    between atoms: _92  and  _93
REMARK   43  A    between atoms: _92  and  _95
REMARK   44  A    between atoms: _95  and  _96
REMARK   45  A    between atoms: _99  and  _101
REMARK   46  A    between atoms: _101  and  _102
REMARK   47  A    between atoms: _101  and  _104
REMARK   48  A    between atoms: _104  and  _105
REMARK   49  A    between atoms: _108  and  _110
REMARK   50  A    between atoms: _110  and  _111
REMARK   51  A    between atoms: _110  and  _113
REMARK   52  A    between atoms: _113  and  _114
REMARK   53  A    between atoms: _119  and  _120
REMARK   54  A    between atoms: _122  and  _124
REMARK   55  A    between atoms: _124  and  _125
REMARK   56  A    between atoms: _124  and  _127
REMARK   57  A    between atoms: _127  and  _128
REMARK   58  A    between atoms: _128  and  _129
REMARK   59  A    between atoms: _129  and  _130
REMARK   60  A    between atoms: _130  and  _131
REMARK   61  A    between atoms: _135  and  _137
REMARK   62  A    between atoms: _137  and  _138
REMARK   63  A    between atoms: _137  and  _140
REMARK   64  A    between atoms: _140  and  _141
REMARK   65  A    between atoms: _143  and  _145
REMARK   66  A    between atoms: _145  and  _146
REMARK   67  A    between atoms: _145  and  _148
REMARK   68  A    between atoms: _151  and  _153
REMARK   69  A    between atoms: _153  and  _154
REMARK   70  A    between atoms: _153  and  _156
REMARK   71  A    between atoms: _156  and  _157
REMARK   72  A    between atoms: _160  and  _162
REMARK   73  A    between atoms: _162  and  _163
REMARK   74  A    between atoms: _162  and  _165
REMARK   75  A    between atoms: _165  and  _166
REMARK   76  A    between atoms: _169  and  _171
REMARK   77  A    between atoms: _171  and  _172
REMARK   78  A    between atoms: _171  and  _174
REMARK   79  A    between atoms: _174  and  _175
REMARK   80  A    between atoms: _179  and  _180
REMARK   81  A    between atoms: _185  and  _187
REMARK   82  A    between atoms: _187  and  _188
REMARK   83  A    between atoms: _187  and  _190
REMARK   84  A    between atoms: _190  and  _191
REMARK   85  A    between atoms: _194  and  _196
REMARK   86  A    between atoms: _196  and  _197
REMARK   87  A    between atoms: _196  and  _199
REMARK   88  A    between atoms: _202  and  _204
REMARK   89  A    between atoms: _204  and  _205
REMARK   90  A    between atoms: _207  and  _209
REMARK   91  A    between atoms: _209  and  _210
REMARK   92  A    between atoms: _209  and  _212
REMARK   93  A    between atoms: _212  and  _213
REMARK   94  A    between atoms: _219  and  _221
REMARK   95  A    between atoms: _221  and  _222
REMARK   96  A    between atoms: _221  and  _224
REMARK   97  A    between atoms: _224  and  _225
REMARK   98  A    between atoms: _230  and  _232
REMARK   99  A    between atoms: _232  and  _233
REMARK  100  A    between atoms: _232  and  _235
REMARK  101  A    between atoms: _235  and  _236
REMARK  102  A    between atoms: _239  and  _241
REMARK  103  A    between atoms: _241  and  _242
REMARK  104  A    between atoms: _241  and  _244
REMARK  105  A    between atoms: _247  and  _249
REMARK  106  A    between atoms: _249  and  _250
REMARK  107  A    between atoms: _252  and  _254
REMARK  108  A    between atoms: _254  and  _255
REMARK  109  A    between atoms: _257  and  _259
REMARK  110  A    between atoms: _259  and  _260
REMARK  111  A    between atoms: _259  and  _262
REMARK  112  A    between atoms: _262  and  _263
REMARK  113  A    between atoms: _266  and  _268
REMARK  114  A    between atoms: _268  and  _269
REMARK  115  A    between atoms: _268  and  _271
REMARK  116  A    between atoms: _271  and  _272
REMARK  117  A    between atoms: _275  and  _277
REMARK  118  A    between atoms: _277  and  _278
REMARK  119  A    between atoms: _277  and  _280
REMARK  120  A    between atoms: _280  and  _281
REMARK  121  A    between atoms: _284  and  _286
REMARK  122  A    between atoms: _286  and  _287
REMARK  123  A    between atoms: _286  and  _289
REMARK  124  A    between atoms: _289  and  _290
REMARK  125  A    between atoms: _290  and  _291
REMARK  126  A    between atoms: _291  and  _292
REMARK  127  A    between atoms: _301  and  _303
REMARK  128  A    between atoms: _303  and  _304
REMARK  129  A    between atoms: _303  and  _306
REMARK  130  A    between atoms: _306  and  _307
REMARK  131  A    between atoms: _317  and  _319
REMARK  132  A    between atoms: _319  and  _320
REMARK  133  A    between atoms: _319  and  _322
REMARK  134  A    between atoms: _325  and  _327
REMARK  135  A    between atoms: _327  and  _328
REMARK  136  A    between atoms: _327  and  _330
REMARK  137  A    between atoms: _333  and  _335
REMARK  138  A    between atoms: _335  and  _336
REMARK  139  A    between atoms: _335  and  _338
REMARK  140  A    between atoms: _338  and  _339
REMARK  141  A    between atoms: _342  and  _344
REMARK  142  A    between atoms: _344  and  _345
REMARK  143  A    between atoms: _344  and  _347
REMARK  144  A    between atoms: _349  and  _351
REMARK  145  A    between atoms: _351  and  _352
REMARK  146  A    between atoms: _355  and  _357
REMARK  147  A    between atoms: _357  and  _358
REMARK  148  A    between atoms: _357  and  _360
REMARK  149  A    between atoms: _360  and  _361
REMARK  150  A    between atoms: _361  and  _362
REMARK  151  A    between atoms: _362  and  _363
REMARK  152  A    between atoms: _372  and  _374
REMARK  153  A    between atoms: _374  and  _375
REMARK  154  A    between atoms: _378  and  _380
REMARK  155  A    between atoms: _380  and  _381
REMARK  156  A    between atoms: _380  and  _383
REMARK  157  A    between atoms: _383  and  _384
REMARK  158  A    between atoms: _389  and  _391
REMARK  159  A    between atoms: _391  and  _392
REMARK  160  A    between atoms: _391  and  _394
REMARK  161  A    between atoms: _394  and  _395
REMARK  162  A    between atoms: _395  and  _396
REMARK  163  A    between atoms: _396  and  _397
REMARK  164  A    between atoms: _397  and  _398
REMARK  165  A    between atoms: _402  and  _404
REMARK  166  A    between atoms: _404  and  _405
REMARK  167  A    between atoms: _404  and  _407
REMARK  168  A    between atoms: _407  and  _408
REMARK  169  A    between atoms: _408  and  _409
REMARK  170  A    between atoms: _414  and  _416
REMARK  171  A    between atoms: _416  and  _417
REMARK  172  A    between atoms: _416  and  _419
REMARK  173  A    between atoms: _419  and  _420
REMARK  174  A    between atoms: _423  and  _425
REMARK  175  A    between atoms: _425  and  _426
REMARK  176  A    between atoms: _425  and  _428
REMARK  177  A    between atoms: _428  and  _429
REMARK  178  A    between atoms: _433  and  _434
REMARK  179  A    between atoms: _439  and  _441
REMARK  180  A    between atoms: _441  and  _442
REMARK  181  A    between atoms: _441  and  _444
REMARK  182  A    between atoms: _444  and  _445
REMARK  183  A    between atoms: _447  and  _449
REMARK  184  A    between atoms: _449  and  _450
REMARK  185  A    between atoms: _449  and  _452
REMARK  186  A    between atoms: _454  and  _456
REMARK  187  A    between atoms: _456  and  _457
REMARK  188  A    between atoms: _460  and  _462
REMARK  189  A    between atoms: _462  and  _463
REMARK  190  A    between atoms: _462  and  _465
REMARK  191  A    between atoms: _465  and  _466
REMARK  192  A    between atoms: _469  and  _471
REMARK  193  A    between atoms: _471  and  _472
REMARK  194  A    between atoms: _471  and  _474
REMARK  195  A    between atoms: _474  and  _475
REMARK  196  A    between atoms: _477  and  _479
REMARK  197  A    between atoms: _479  and  _480
REMARK  198  A    between atoms: _482  and  _484
REMARK  199  A    between atoms: _484  and  _485
REMARK  200  A    between atoms: _484  and  _487
REMARK  201  A    between atoms: _487  and  _488
REMARK  202  A    between atoms: _491  and  _493
REMARK  203  A    between atoms: _493  and  _494
REMARK  204  A    between atoms: _493  and  _496
REMARK  205  A    between atoms: _496  and  _497
REMARK  206  A    between atoms: _500  and  _502
REMARK  207  A    between atoms: _502  and  _503
REMARK  208  A    between atoms: _502  and  _505
REMARK  209  A    between atoms: _505  and  _506
REMARK                            x       y       z     vdW  Elec       q    Type
REMARK                         _______ _______ _______ _____ _____    ______ ____
ROOT
ATOM      1  O   HOH     1       2.916  16.903  49.513  0.00  0.00    +0.000 OA
ENDROOT
TORSDOF 0
REMARK  Name = ../refined-set-2016/4kax/4kax_pocket.pdb
REMARK  209 active torsions:
REMARK  status: ('A' for Active; 'I' for Inactive)
REMARK    1  A    between atoms: _1  and  _3
REMARK    2  A    between atoms: _3  and  _4
REMARK    3  A    between atoms: _3  and  _6
REMARK    4  A    between atoms: _6  and  _7
REMARK    5  A    between atoms: _7  and  _8
REMARK    6  A    between atoms: _10  and  _12
REMARK    7  A    between atoms: _12  and  _13
REMARK    8  A    between atoms: _12  and  _15
REMARK    9  A    between atoms: _15  and  _16
REMARK   10  A    between atoms: _19  and  _21
REMARK   11  A    between atoms: _21  and  _22
REMARK   12  A    between atoms: _24  and  _26
REMARK   13  A    between atoms: _26  and  _27
REMARK   14  A    between atoms: _26  and  _29
REMARK   15  A    between atoms: _29  and  _30
REMARK   16  A    between atoms: _33  and  _35
REMARK   17  A    between atoms: _35  and  _36
REMARK   18  A    between atoms: _35  and  _38
REMARK   19  A    between atoms: _38  and  _39
REMARK   20  A    between atoms: _42  and  _44
REMARK   21  A    between atoms: _44  and  _45
REMARK   22  A    between atoms: _48  and  _50
REMARK   23  A    between atoms: _50  and  _51
REMARK   24  A    between atoms: _54  and  _56
REMARK   25  A    between atoms: _56  and  _57
REMARK   26  A    between atoms: _59  and  _61
REMARK   27  A    between atoms: _61  and  _62
REMARK   28  A    between atoms: _61  and  _64
REMARK   29  A    between atoms: _64  and  _65
REMARK   30  A    between atoms: _65  and  _66
REMARK   31  A    between atoms: _66  and  _67
REMARK   32  A    between atoms: _67  and  _68
REMARK   33  A    between atoms: _72  and  _74
REMARK   34  A    between atoms: _74  and  _75
REMARK   35  A    between atoms: _74  and  _77
REMARK   36  A    between atoms: _77  and  _78
REMARK   37  A    between atoms: _81  and  _83
REMARK   38  A    between atoms: _83  and  _84
REMARK   39  A    between atoms: _83  and  _86
REMARK   40  A    between atoms: _86  and  _87
REMARK   41  A    between atoms: _90  and  _92
REMARK   42  A    between atoms: _92  and  _93
REMARK   43  A    between atoms: _92  and  _95
REMARK   44  A    between atoms: _95  and  _96
REMARK   45  A    between atoms: _99  and  _101
REMARK   46  A    between atoms: _101  and  _102
REMARK   47  A    between atoms: _101  and  _104
REMARK   48  A    between atoms: _104  and  _105
REMARK   49  A    between atoms: _108  and  _110
REMARK   50  A    between atoms: _110  and  _111
REMARK   51  A    between atoms: _110  and  _113
REMARK   52  A    between atoms: _113  and  _114
REMARK   53  A    between atoms: _119  and  _120
REMARK   54  A    between atoms: _122  and  _124
REMARK   55  A    between atoms: _124  and  _125
REMARK   56  A    between atoms: _124  and  _127
REMARK   57  A    between atoms: _127  and  _128
REMARK   58  A    between atoms: _128  and  _129
REMARK   59  A    between atoms: _129  and  _130
REMARK   60  A    between atoms: _130  and  _131
REMARK   61  A    between atoms: _135  and  _137
REMARK   62  A    between atoms: _137  and  _138
REMARK   63  A    between atoms: _137  and  _140
REMARK   64  A    between atoms: _140  and  _141
REMARK   65  A    between atoms: _143  and  _145
REMARK   66  A    between atoms: _145  and  _146
REMARK   67  A    between atoms: _145  and  _148
REMARK   68  A    between atoms: _151  and  _153
REMARK   69  A    between atoms: _153  and  _154
REMARK   70  A    between atoms: _153  and  _156
REMARK   71  A    between atoms: _156  and  _157
REMARK   72  A    between atoms: _160  and  _162
REMARK   73  A    between atoms: _162  and  _163
REMARK   74  A    between atoms: _162  and  _165
REMARK   75  A    between atoms: _165  and  _166
REMARK   76  A    between atoms: _169  and  _171
REMARK   77  A    between atoms: _171  and  _172
REMARK   78  A    between atoms: _171  and  _174
REMARK   79  A    between atoms: _174  and  _175
REMARK   80  A    between atoms: _179  and  _180
REMARK   81  A    between atoms: _185  and  _187
REMARK   82  A    between atoms: _187  and  _188
REMARK   83  A    between atoms: _187  and  _190
REMARK   84  A    between atoms: _190  and  _191
REMARK   85  A    between atoms: _194  and  _196
REMARK   86  A    between atoms: _196  and  _197
REMARK   87  A    between atoms: _196  and  _199
REMARK   88  A    between atoms: _202  and  _204
REMARK   89  A    between atoms: _204  and  _205
REMARK   90  A    between atoms: _207  and  _209
REMARK   91  A    between atoms: _209  and  _210
REMARK   92  A    between atoms: _209  and  _212
REMARK   93  A    between atoms: _212  and  _213
REMARK   94  A    between atoms: _219  and  _221
REMARK   95  A    between atoms: _221  and  _222
REMARK   96  A    between atoms: _221  and  _224
REMARK   97  A    between atoms: _224  and  _225
REMARK   98  A    between atoms: _230  and  _232
REMARK   99  A    between atoms: _232  and  _233
REMARK  100  A    between atoms: _232  and  _235
REMARK  101  A    between atoms: _235  and  _236
REMARK  102  A    between atoms: _239  and  _241
REMARK  103  A    between atoms: _241  and  _242
REMARK  104  A    between atoms: _241  and  _244
REMARK  105  A    between atoms: _247  and  _249
REMARK  106  A    between atoms: _249  and  _250
REMARK  107  A    between atoms: _252  and  _254
REMARK  108  A    between atoms: _254  and  _255
REMARK  109  A    between atoms: _257  and  _259
REMARK  110  A    between atoms: _259  and  _260
REMARK  111  A    between atoms: _259  and  _262
REMARK  112  A    between atoms: _262  and  _263
REMARK  113  A    between atoms: _266  and  _268
REMARK  114  A    between atoms: _268  and  _269
REMARK  115  A    between atoms: _268  and  _271
REMARK  116  A    between atoms: _271  and  _272
REMARK  117  A    between atoms: _275  and  _277
REMARK  118  A    between atoms: _277  and  _278
REMARK  119  A    between atoms: _277  and  _280
REMARK  120  A    between atoms: _280  and  _281
REMARK  121  A    between atoms: _284  and  _286
REMARK  122  A    between atoms: _286  and  _287
REMARK  123  A    between atoms: _286  and  _289
REMARK  124  A    between atoms: _289  and  _290
REMARK  125  A    between atoms: _290  and  _291
REMARK  126  A    between atoms: _291  and  _292
REMARK  127  A    between atoms: _301  and  _303
REMARK  128  A    between atoms: _303  and  _304
REMARK  129  A    between atoms: _303  and  _306
REMARK  130  A    between atoms: _306  and  _307
REMARK  131  A    between atoms: _317  and  _319
REMARK  132  A    between atoms: _319  and  _320
REMARK  133  A    between atoms: _319  and  _322
REMARK  134  A    between atoms: _325  and  _327
REMARK  135  A    between atoms: _327  and  _328
REMARK  136  A    between atoms: _327  and  _330
REMARK  137  A    between atoms: _333  and  _335
REMARK  138  A    between atoms: _335  and  _336
REMARK  139  A    between atoms: _335  and  _338
REMARK  140  A    between atoms: _338  and  _339
REMARK  141  A    between atoms: _342  and  _344
REMARK  142  A    between atoms: _344  and  _345
REMARK  143  A    between atoms: _344  and  _347
REMARK  144  A    between atoms: _349  and  _351
REMARK  145  A    between atoms: _351  and  _352
REMARK  146  A    between atoms: _355  and  _357
REMARK  147  A    between atoms: _357  and  _358
REMARK  148  A    between atoms: _357  and  _360
REMARK  149  A    between atoms: _360  and  _361
REMARK  150  A    between atoms: _361  and  _362
REMARK  151  A    between atoms: _362  and  _363
REMARK  152  A    between atoms: _372  and  _374
REMARK  153  A    between atoms: _374  and  _375
REMARK  154  A    between atoms: _378  and  _380
REMARK  155  A    between atoms: _380  and  _381
REMARK  156  A    between atoms: _380  and  _383
REMARK  157  A    between atoms: _383  and  _384
REMARK  158  A    between atoms: _389  and  _391
REMARK  159  A    between atoms: _391  and  _392
REMARK  160  A    between atoms: _391  and  _394
REMARK  161  A    between atoms: _394  and  _395
REMARK  162  A    between atoms: _395  and  _396
REMARK  163  A    between atoms: _396  and  _397
REMARK  164  A    between atoms: _397  and  _398
REMARK  165  A    between atoms: _402  and  _404
REMARK  166  A    between atoms: _404  and  _405
REMARK  167  A    between atoms: _404  and  _407
REMARK  168  A    between atoms: _407  and  _408
REMARK  169  A    between atoms: _408  and  _409
REMARK  170  A    between atoms: _414  and  _416
REMARK  171  A    between atoms: _416  and  _417
REMARK  172  A    between atoms: _416  and  _419
REMARK  173  A    between atoms: _419  and  _420
REMARK  174  A    between atoms: _423  and  _425
REMARK  175  A    between atoms: _425  and  _426
REMARK  176  A    between atoms: _425  and  _428
REMARK  177  A    between atoms: _428  and  _429
REMARK  178  A    between atoms: _433  and  _434
REMARK  179  A    between atoms: _439  and  _441
REMARK  180  A    between atoms: _441  and  _442
REMARK  181  A    between atoms: _441  and  _444
REMARK  182  A    between atoms: _444  and  _445
REMARK  183  A    between atoms: _447  and  _449
REMARK  184  A    between atoms: _449  and  _450
REMARK  185  A    between atoms: _449  and  _452
REMARK  186  A    between atoms: _454  and  _456
REMARK  187  A    between atoms: _456  and  _457
REMARK  188  A    between atoms: _460  and  _462
REMARK  189  A    between atoms: _462  and  _463
REMARK  190  A    between atoms: _462  and  _465
REMARK  191  A    between atoms: _465  and  _466
REMARK  192  A    between atoms: _469  and  _471
REMARK  193  A    between atoms: _471  and  _472
REMARK  194  A    between atoms: _471  and  _474
REMARK  195  A    between atoms: _474  and  _475
REMARK  196  A    between atoms: _477  and  _479
REMARK  197  A    between atoms: _479  and  _480
REMARK  198  A    between atoms: _482  and  _484
REMARK  199  A    between atoms: _484  and  _485
REMARK  200  A    between atoms: _484  and  _487
REMARK  201  A    between atoms: _487  and  _488
REMARK  202  A    between atoms: _491  and  _493
REMARK  203  A    between atoms: _493  and  _494
REMARK  204  A    between atoms: _493  and  _496
REMARK  205  A    between atoms: _496  and  _497
REMARK  206  A    between atoms: _500  and  _502
REMARK  207  A    between atoms: _502  and  _503
REMARK  208  A    between atoms: _502  and  _505
REMARK  209  A    between atoms: _505  and  _506
REMARK                            x       y       z     vdW  Elec       q    Type
REMARK                         _______ _______ _______ _____ _____    ______ ____
ROOT
ATOM      1  O   HOH     1     -11.449  10.696  55.472  0.00  0.00    +0.000 OA
ENDROOT
TORSDOF 0
REMARK  Name = ../refined-set-2016/4kax/4kax_pocket.pdb
REMARK  209 active torsions:
REMARK  status: ('A' for Active; 'I' for Inactive)
REMARK    1  A    between atoms: _1  and  _3
REMARK    2  A    between atoms: _3  and  _4
REMARK    3  A    between atoms: _3  and  _6
REMARK    4  A    between atoms: _6  and  _7
REMARK    5  A    between atoms: _7  and  _8
REMARK    6  A    between atoms: _10  and  _12
REMARK    7  A    between atoms: _12  and  _13
REMARK    8  A    between atoms: _12  and  _15
REMARK    9  A    between atoms: _15  and  _16
REMARK   10  A    between atoms: _19  and  _21
REMARK   11  A    between atoms: _21  and  _22
REMARK   12  A    between atoms: _24  and  _26
REMARK   13  A    between atoms: _26  and  _27
REMARK   14  A    between atoms: _26  and  _29
REMARK   15  A    between atoms: _29  and  _30
REMARK   16  A    between atoms: _33  and  _35
REMARK   17  A    between atoms: _35  and  _36
REMARK   18  A    between atoms: _35  and  _38
REMARK   19  A    between atoms: _38  and  _39
REMARK   20  A    between atoms: _42  and  _44
REMARK   21  A    between atoms: _44  and  _45
REMARK   22  A    between atoms: _48  and  _50
REMARK   23  A    between atoms: _50  and  _51
REMARK   24  A    between atoms: _54  and  _56
REMARK   25  A    between atoms: _56  and  _57
REMARK   26  A    between atoms: _59  and  _61
REMARK   27  A    between atoms: _61  and  _62
REMARK   28  A    between atoms: _61  and  _64
REMARK   29  A    between atoms: _64  and  _65
REMARK   30  A    between atoms: _65  and  _66
REMARK   31  A    between atoms: _66  and  _67
REMARK   32  A    between atoms: _67  and  _68
REMARK   33  A    between atoms: _72  and  _74
REMARK   34  A    between atoms: _74  and  _75
REMARK   35  A    between atoms: _74  and  _77
REMARK   36  A    between atoms: _77  and  _78
REMARK   37  A    between atoms: _81  and  _83
REMARK   38  A    between atoms: _83  and  _84
REMARK   39  A    between atoms: _83  and  _86
REMARK   40  A    between atoms: _86  and  _87
REMARK   41  A    between atoms: _90  and  _92
REMARK   42  A    between atoms: _92  and  _93
REMARK   43  A    between atoms: _92  and  _95
REMARK   44  A    between atoms: _95  and  _96
REMARK   45  A    between atoms: _99  and  _101
REMARK   46  A    between atoms: _101  and  _102
REMARK   47  A    between atoms: _101  and  _104
REMARK   48  A    between atoms: _104  and  _105
REMARK   49  A    between atoms: _108  and  _110
REMARK   50  A    between atoms: _110  and  _111
REMARK   51  A    between atoms: _110  and  _113
REMARK   52  A    between atoms: _113  and  _114
REMARK   53  A    between atoms: _119  and  _120
REMARK   54  A    between atoms: _122  and  _124
REMARK   55  A    between atoms: _124  and  _125
REMARK   56  A    between atoms: _124  and  _127
REMARK   57  A    between atoms: _127  and  _128
REMARK   58  A    between atoms: _128  and  _129
REMARK   59  A    between atoms: _129  and  _130
REMARK   60  A    between atoms: _130  and  _131
REMARK   61  A    between atoms: _135  and  _137
REMARK   62  A    between atoms: _137  and  _138
REMARK   63  A    between atoms: _137  and  _140
REMARK   64  A    between atoms: _140  and  _141
REMARK   65  A    between atoms: _143  and  _145
REMARK   66  A    between atoms: _145  and  _146
REMARK   67  A    between atoms: _145  and  _148
REMARK   68  A    between atoms: _151  and  _153
REMARK   69  A    between atoms: _153  and  _154
REMARK   70  A    between atoms: _153  and  _156
REMARK   71  A    between atoms: _156  and  _157
REMARK   72  A    between atoms: _160  and  _162
REMARK   73  A    between atoms: _162  and  _163
REMARK   74  A    between atoms: _162  and  _165
REMARK   75  A    between atoms: _165  and  _166
REMARK   76  A    between atoms: _169  and  _171
REMARK   77  A    between atoms: _171  and  _172
REMARK   78  A    between atoms: _171  and  _174
REMARK   79  A    between atoms: _174  and  _175
REMARK   80  A    between atoms: _179  and  _180
REMARK   81  A    between atoms: _185  and  _187
REMARK   82  A    between atoms: _187  and  _188
REMARK   83  A    between atoms: _187  and  _190
REMARK   84  A    between atoms: _190  and  _191
REMARK   85  A    between atoms: _194  and  _196
REMARK   86  A    between atoms: _196  and  _197
REMARK   87  A    between atoms: _196  and  _199
REMARK   88  A    between atoms: _202  and  _204
REMARK   89  A    between atoms: _204  and  _205
REMARK   90  A    between atoms: _207  and  _209
REMARK   91  A    between atoms: _209  and  _210
REMARK   92  A    between atoms: _209  and  _212
REMARK   93  A    between atoms: _212  and  _213
REMARK   94  A    between atoms: _219  and  _221
REMARK   95  A    between atoms: _221  and  _222
REMARK   96  A    between atoms: _221  and  _224
REMARK   97  A    between atoms: _224  and  _225
REMARK   98  A    between atoms: _230  and  _232
REMARK   99  A    between atoms: _232  and  _233
REMARK  100  A    between atoms: _232  and  _235
REMARK  101  A    between atoms: _235  and  _236
REMARK  102  A    between atoms: _239  and  _241
REMARK  103  A    between atoms: _241  and  _242
REMARK  104  A    between atoms: _241  and  _244
REMARK  105  A    between atoms: _247  and  _249
REMARK  106  A    between atoms: _249  and  _250
REMARK  107  A    between atoms: _252  and  _254
REMARK  108  A    between atoms: _254  and  _255
REMARK  109  A    between atoms: _257  and  _259
REMARK  110  A    between atoms: _259  and  _260
REMARK  111  A    between atoms: _259  and  _262
REMARK  112  A    between atoms: _262  and  _263
REMARK  113  A    between atoms: _266  and  _268
REMARK  114  A    between atoms: _268  and  _269
REMARK  115  A    between atoms: _268  and  _271
REMARK  116  A    between atoms: _271  and  _272
REMARK  117  A    between atoms: _275  and  _277
REMARK  118  A    between atoms: _277  and  _278
REMARK  119  A    between atoms: _277  and  _280
REMARK  120  A    between atoms: _280  and  _281
REMARK  121  A    between atoms: _284  and  _286
REMARK  122  A    between atoms: _286  and  _287
REMARK  123  A    between atoms: _286  and  _289
REMARK  124  A    between atoms: _289  and  _290
REMARK  125  A    between atoms: _290  and  _291
REMARK  126  A    between atoms: _291  and  _292
REMARK  127  A    between atoms: _301  and  _303
REMARK  128  A    between atoms: _303  and  _304
REMARK  129  A    between atoms: _303  and  _306
REMARK  130  A    between atoms: _306  and  _307
REMARK  131  A    between atoms: _317  and  _319
REMARK  132  A    between atoms: _319  and  _320
REMARK  133  A    between atoms: _319  and  _322
REMARK  134  A    between atoms: _325  and  _327
REMARK  135  A    between atoms: _327  and  _328
REMARK  136  A    between atoms: _327  and  _330
REMARK  137  A    between atoms: _333  and  _335
REMARK  138  A    between atoms: _335  and  _336
REMARK  139  A    between atoms: _335  and  _338
REMARK  140  A    between atoms: _338  and  _339
REMARK  141  A    between atoms: _342  and  _344
REMARK  142  A    between atoms: _344  and  _345
REMARK  143  A    between atoms: _344  and  _347
REMARK  144  A    between atoms: _349  and  _351
REMARK  145  A    between atoms: _351  and  _352
REMARK  146  A    between atoms: _355  and  _357
REMARK  147  A    between atoms: _357  and  _358
REMARK  148  A    between atoms: _357  and  _360
REMARK  149  A    between atoms: _360  and  _361
REMARK  150  A    between atoms: _361  and  _362
REMARK  151  A    between atoms: _362  and  _363
REMARK  152  A    between atoms: _372  and  _374
REMARK  153  A    between atoms: _374  and  _375
REMARK  154  A    between atoms: _378  and  _380
REMARK  155  A    between atoms: _380  and  _381
REMARK  156  A    between atoms: _380  and  _383
REMARK  157  A    between atoms: _383  and  _384
REMARK  158  A    between atoms: _389  and  _391
REMARK  159  A    between atoms: _391  and  _392
REMARK  160  A    between atoms: _391  and  _394
REMARK  161  A    between atoms: _394  and  _395
REMARK  162  A    between atoms: _395  and  _396
REMARK  163  A    between atoms: _396  and  _397
REMARK  164  A    between atoms: _397  and  _398
REMARK  165  A    between atoms: _402  and  _404
REMARK  166  A    between atoms: _404  and  _405
REMARK  167  A    between atoms: _404  and  _407
REMARK  168  A    between atoms: _407  and  _408
REMARK  169  A    between atoms: _408  and  _409
REMARK  170  A    between atoms: _414  and  _416
REMARK  171  A    between atoms: _416  and  _417
REMARK  172  A    between atoms: _416  and  _419
REMARK  173  A    between atoms: _419  and  _420
REMARK  174  A    between atoms: _423  and  _425
REMARK  175  A    between atoms: _425  and  _426
REMARK  176  A    between atoms: _425  and  _428
REMARK  177  A    between atoms: _428  and  _429
REMARK  178  A    between atoms: _433  and  _434
REMARK  179  A    between atoms: _439  and  _441
REMARK  180  A    between atoms: _441  and  _442
REMARK  181  A    between atoms: _441  and  _444
REMARK  182  A    between atoms: _444  and  _445
REMARK  183  A    between atoms: _447  and  _449
REMARK  184  A    between atoms: _449  and  _450
REMARK  185  A    between atoms: _449  and  _452
REMARK  186  A    between atoms: _454  and  _456
REMARK  187  A    between atoms: _456  and  _457
REMARK  188  A    between atoms: _460  and  _462
REMARK  189  A    between atoms: _462  and  _463
REMARK  190  A    between atoms: _462  and  _465
REMARK  191  A    between atoms: _465  and  _466
REMARK  192  A    between atoms: _469  and  _471
REMARK  193  A    between atoms: _471  and  _472
REMARK  194  A    between atoms: _471  and  _474
REMARK  195  A    between atoms: _474  and  _475
REMARK  196  A    between atoms: _477  and  _479
REMARK  197  A    between atoms: _479  and  _480
REMARK  198  A    between atoms: _482  and  _484
REMARK  199  A    between atoms: _484  and  _485
REMARK  200  A    between atoms: _484  and  _487
REMARK  201  A    between atoms: _487  and  _488
REMARK  202  A    between atoms: _491  and  _493
REMARK  203  A    between atoms: _493  and  _494
REMARK  204  A    between atoms: _493  and  _496
REMARK  205  A    between atoms: _496  and  _497
REMARK  206  A    between atoms: _500  and  _502
REMARK  207  A    between atoms: _502  and  _503
REMARK  208  A    between atoms: _502  and  _505
REMARK  209  A    between atoms: _505  and  _506
REMARK                            x       y       z     vdW  Elec       q    Type
REMARK                         _______ _______ _______ _____ _____    ______ ____
ROOT
ATOM      1  O   HOH     1       0.685  15.690  48.209  0.00  0.00    +0.000 OA
ENDROOT
TORSDOF 0
REMARK  Name = ../refined-set-2016/4kax/4kax_pocket.pdb
REMARK  209 active torsions:
REMARK  status: ('A' for Active; 'I' for Inactive)
REMARK    1  A    between atoms: _1  and  _3
REMARK    2  A    between atoms: _3  and  _4
REMARK    3  A    between atoms: _3  and  _6
REMARK    4  A    between atoms: _6  and  _7
REMARK    5  A    between atoms: _7  and  _8
REMARK    6  A    between atoms: _10  and  _12
REMARK    7  A    between atoms: _12  and  _13
REMARK    8  A    between atoms: _12  and  _15
REMARK    9  A    between atoms: _15  and  _16
REMARK   10  A    between atoms: _19  and  _21
REMARK   11  A    between atoms: _21  and  _22
REMARK   12  A    between atoms: _24  and  _26
REMARK   13  A    between atoms: _26  and  _27
REMARK   14  A    between atoms: _26  and  _29
REMARK   15  A    between atoms: _29  and  _30
REMARK   16  A    between atoms: _33  and  _35
REMARK   17  A    between atoms: _35  and  _36
REMARK   18  A    between atoms: _35  and  _38
REMARK   19  A    between atoms: _38  and  _39
REMARK   20  A    between atoms: _42  and  _44
REMARK   21  A    between atoms: _44  and  _45
REMARK   22  A    between atoms: _48  and  _50
REMARK   23  A    between atoms: _50  and  _51
REMARK   24  A    between atoms: _54  and  _56
REMARK   25  A    between atoms: _56  and  _57
REMARK   26  A    between atoms: _59  and  _61
REMARK   27  A    between atoms: _61  and  _62
REMARK   28  A    between atoms: _61  and  _64
REMARK   29  A    between atoms: _64  and  _65
REMARK   30  A    between atoms: _65  and  _66
REMARK   31  A    between atoms: _66  and  _67
REMARK   32  A    between atoms: _67  and  _68
REMARK   33  A    between atoms: _72  and  _74
REMARK   34  A    between atoms: _74  and  _75
REMARK   35  A    between atoms: _74  and  _77
REMARK   36  A    between atoms: _77  and  _78
REMARK   37  A    between atoms: _81  and  _83
REMARK   38  A    between atoms: _83  and  _84
REMARK   39  A    between atoms: _83  and  _86
REMARK   40  A    between atoms: _86  and  _87
REMARK   41  A    between atoms: _90  and  _92
REMARK   42  A    between atoms: _92  and  _93
REMARK   43  A    between atoms: _92  and  _95
REMARK   44  A    between atoms: _95  and  _96
REMARK   45  A    between atoms: _99  and  _101
REMARK   46  A    between atoms: _101  and  _102
REMARK   47  A    between atoms: _101  and  _104
REMARK   48  A    between atoms: _104  and  _105
REMARK   49  A    between atoms: _108  and  _110
REMARK   50  A    between atoms: _110  and  _111
REMARK   51  A    between atoms: _110  and  _113
REMARK   52  A    between atoms: _113  and  _114
REMARK   53  A    between atoms: _119  and  _120
REMARK   54  A    between atoms: _122  and  _124
REMARK   55  A    between atoms: _124  and  _125
REMARK   56  A    between atoms: _124  and  _127
REMARK   57  A    between atoms: _127  and  _128
REMARK   58  A    between atoms: _128  and  _129
REMARK   59  A    between atoms: _129  and  _130
REMARK   60  A    between atoms: _130  and  _131
REMARK   61  A    between atoms: _135  and  _137
REMARK   62  A    between atoms: _137  and  _138
REMARK   63  A    between atoms: _137  and  _140
REMARK   64  A    between atoms: _140  and  _141
REMARK   65  A    between atoms: _143  and  _145
REMARK   66  A    between atoms: _145  and  _146
REMARK   67  A    between atoms: _145  and  _148
REMARK   68  A    between atoms: _151  and  _153
REMARK   69  A    between atoms: _153  and  _154
REMARK   70  A    between atoms: _153  and  _156
REMARK   71  A    between atoms: _156  and  _157
REMARK   72  A    between atoms: _160  and  _162
REMARK   73  A    between atoms: _162  and  _163
REMARK   74  A    between atoms: _162  and  _165
REMARK   75  A    between atoms: _165  and  _166
REMARK   76  A    between atoms: _169  and  _171
REMARK   77  A    between atoms: _171  and  _172
REMARK   78  A    between atoms: _171  and  _174
REMARK   79  A    between atoms: _174  and  _175
REMARK   80  A    between atoms: _179  and  _180
REMARK   81  A    between atoms: _185  and  _187
REMARK   82  A    between atoms: _187  and  _188
REMARK   83  A    between atoms: _187  and  _190
REMARK   84  A    between atoms: _190  and  _191
REMARK   85  A    between atoms: _194  and  _196
REMARK   86  A    between atoms: _196  and  _197
REMARK   87  A    between atoms: _196  and  _199
REMARK   88  A    between atoms: _202  and  _204
REMARK   89  A    between atoms: _204  and  _205
REMARK   90  A    between atoms: _207  and  _209
REMARK   91  A    between atoms: _209  and  _210
REMARK   92  A    between atoms: _209  and  _212
REMARK   93  A    between atoms: _212  and  _213
REMARK   94  A    between atoms: _219  and  _221
REMARK   95  A    between atoms: _221  and  _222
REMARK   96  A    between atoms: _221  and  _224
REMARK   97  A    between atoms: _224  and  _225
REMARK   98  A    between atoms: _230  and  _232
REMARK   99  A    between atoms: _232  and  _233
REMARK  100  A    between atoms: _232  and  _235
REMARK  101  A    between atoms: _235  and  _236
REMARK  102  A    between atoms: _239  and  _241
REMARK  103  A    between atoms: _241  and  _242
REMARK  104  A    between atoms: _241  and  _244
REMARK  105  A    between atoms: _247  and  _249
REMARK  106  A    between atoms: _249  and  _250
REMARK  107  A    between atoms: _252  and  _254
REMARK  108  A    between atoms: _254  and  _255
REMARK  109  A    between atoms: _257  and  _259
REMARK  110  A    between atoms: _259  and  _260
REMARK  111  A    between atoms: _259  and  _262
REMARK  112  A    between atoms: _262  and  _263
REMARK  113  A    between atoms: _266  and  _268
REMARK  114  A    between atoms: _268  and  _269
REMARK  115  A    between atoms: _268  and  _271
REMARK  116  A    between atoms: _271  and  _272
REMARK  117  A    between atoms: _275  and  _277
REMARK  118  A    between atoms: _277  and  _278
REMARK  119  A    between atoms: _277  and  _280
REMARK  120  A    between atoms: _280  and  _281
REMARK  121  A    between atoms: _284  and  _286
REMARK  122  A    between atoms: _286  and  _287
REMARK  123  A    between atoms: _286  and  _289
REMARK  124  A    between atoms: _289  and  _290
REMARK  125  A    between atoms: _290  and  _291
REMARK  126  A    between atoms: _291  and  _292
REMARK  127  A    between atoms: _301  and  _303
REMARK  128  A    between atoms: _303  and  _304
REMARK  129  A    between atoms: _303  and  _306
REMARK  130  A    between atoms: _306  and  _307
REMARK  131  A    between atoms: _317  and  _319
REMARK  132  A    between atoms: _319  and  _320
REMARK  133  A    between atoms: _319  and  _322
REMARK  134  A    between atoms: _325  and  _327
REMARK  135  A    between atoms: _327  and  _328
REMARK  136  A    between atoms: _327  and  _330
REMARK  137  A    between atoms: _333  and  _335
REMARK  138  A    between atoms: _335  and  _336
REMARK  139  A    between atoms: _335  and  _338
REMARK  140  A    between atoms: _338  and  _339
REMARK  141  A    between atoms: _342  and  _344
REMARK  142  A    between atoms: _344  and  _345
REMARK  143  A    between atoms: _344  and  _347
REMARK  144  A    between atoms: _349  and  _351
REMARK  145  A    between atoms: _351  and  _352
REMARK  146  A    between atoms: _355  and  _357
REMARK  147  A    between atoms: _357  and  _358
REMARK  148  A    between atoms: _357  and  _360
REMARK  149  A    between atoms: _360  and  _361
REMARK  150  A    between atoms: _361  and  _362
REMARK  151  A    between atoms: _362  and  _363
REMARK  152  A    between atoms: _372  and  _374
REMARK  153  A    between atoms: _374  and  _375
REMARK  154  A    between atoms: _378  and  _380
REMARK  155  A    between atoms: _380  and  _381
REMARK  156  A    between atoms: _380  and  _383
REMARK  157  A    between atoms: _383  and  _384
REMARK  158  A    between atoms: _389  and  _391
REMARK  159  A    between atoms: _391  and  _392
REMARK  160  A    between atoms: _391  and  _394
REMARK  161  A    between atoms: _394  and  _395
REMARK  162  A    between atoms: _395  and  _396
REMARK  163  A    between atoms: _396  and  _397
REMARK  164  A    between atoms: _397  and  _398
REMARK  165  A    between atoms: _402  and  _404
REMARK  166  A    between atoms: _404  and  _405
REMARK  167  A    between atoms: _404  and  _407
REMARK  168  A    between atoms: _407  and  _408
REMARK  169  A    between atoms: _408  and  _409
REMARK  170  A    between atoms: _414  and  _416
REMARK  171  A    between atoms: _416  and  _417
REMARK  172  A    between atoms: _416  and  _419
REMARK  173  A    between atoms: _419  and  _420
REMARK  174  A    between atoms: _423  and  _425
REMARK  175  A    between atoms: _425  and  _426
REMARK  176  A    between atoms: _425  and  _428
REMARK  177  A    between atoms: _428  and  _429
REMARK  178  A    between atoms: _433  and  _434
REMARK  179  A    between atoms: _439  and  _441
REMARK  180  A    between atoms: _441  and  _442
REMARK  181  A    between atoms: _441  and  _444
REMARK  182  A    between atoms: _444  and  _445
REMARK  183  A    between atoms: _447  and  _449
REMARK  184  A    between atoms: _449  and  _450
REMARK  185  A    between atoms: _449  and  _452
REMARK  186  A    between atoms: _454  and  _456
REMARK  187  A    between atoms: _456  and  _457
REMARK  188  A    between atoms: _460  and  _462
REMARK  189  A    between atoms: _462  and  _463
REMARK  190  A    between atoms: _462  and  _465
REMARK  191  A    between atoms: _465  and  _466
REMARK  192  A    between atoms: _469  and  _471
REMARK  193  A    between atoms: _471  and  _472
REMARK  194  A    between atoms: _471  and  _474
REMARK  195  A    between atoms: _474  and  _475
REMARK  196  A    between atoms: _477  and  _479
REMARK  197  A    between atoms: _479  and  _480
REMARK  198  A    between atoms: _482  and  _484
REMARK  199  A    between atoms: _484  and  _485
REMARK  200  A    between atoms: _484  and  _487
REMARK  201  A    between atoms: _487  and  _488
REMARK  202  A    between atoms: _491  and  _493
REMARK  203  A    between atoms: _493  and  _494
REMARK  204  A    between atoms: _493  and  _496
REMARK  205  A    between atoms: _496  and  _497
REMARK  206  A    between atoms: _500  and  _502
REMARK  207  A    between atoms: _502  and  _503
REMARK  208  A    between atoms: _502  and  _505
REMARK  209  A    between atoms: _505  and  _506
REMARK                            x       y       z     vdW  Elec       q    Type
REMARK                         _______ _______ _______ _____ _____    ______ ____
ROOT
ATOM      1  O   HOH     1       9.359  10.505  51.102  0.00  0.00    +0.000 OA
ENDROOT
TORSDOF 0
REMARK  Name = ../refined-set-2016/4kax/4kax_pocket.pdb
REMARK  209 active torsions:
REMARK  status: ('A' for Active; 'I' for Inactive)
REMARK    1  A    between atoms: _1  and  _3
REMARK    2  A    between atoms: _3  and  _4
REMARK    3  A    between atoms: _3  and  _6
REMARK    4  A    between atoms: _6  and  _7
REMARK    5  A    between atoms: _7  and  _8
REMARK    6  A    between atoms: _10  and  _12
REMARK    7  A    between atoms: _12  and  _13
REMARK    8  A    between atoms: _12  and  _15
REMARK    9  A    between atoms: _15  and  _16
REMARK   10  A    between atoms: _19  and  _21
REMARK   11  A    between atoms: _21  and  _22
REMARK   12  A    between atoms: _24  and  _26
REMARK   13  A    between atoms: _26  and  _27
REMARK   14  A    between atoms: _26  and  _29
REMARK   15  A    between atoms: _29  and  _30
REMARK   16  A    between atoms: _33  and  _35
REMARK   17  A    between atoms: _35  and  _36
REMARK   18  A    between atoms: _35  and  _38
REMARK   19  A    between atoms: _38  and  _39
REMARK   20  A    between atoms: _42  and  _44
REMARK   21  A    between atoms: _44  and  _45
REMARK   22  A    between atoms: _48  and  _50
REMARK   23  A    between atoms: _50  and  _51
REMARK   24  A    between atoms: _54  and  _56
REMARK   25  A    between atoms: _56  and  _57
REMARK   26  A    between atoms: _59  and  _61
REMARK   27  A    between atoms: _61  and  _62
REMARK   28  A    between atoms: _61  and  _64
REMARK   29  A    between atoms: _64  and  _65
REMARK   30  A    between atoms: _65  and  _66
REMARK   31  A    between atoms: _66  and  _67
REMARK   32  A    between atoms: _67  and  _68
REMARK   33  A    between atoms: _72  and  _74
REMARK   34  A    between atoms: _74  and  _75
REMARK   35  A    between atoms: _74  and  _77
REMARK   36  A    between atoms: _77  and  _78
REMARK   37  A    between atoms: _81  and  _83
REMARK   38  A    between atoms: _83  and  _84
REMARK   39  A    between atoms: _83  and  _86
REMARK   40  A    between atoms: _86  and  _87
REMARK   41  A    between atoms: _90  and  _92
REMARK   42  A    between atoms: _92  and  _93
REMARK   43  A    between atoms: _92  and  _95
REMARK   44  A    between atoms: _95  and  _96
REMARK   45  A    between atoms: _99  and  _101
REMARK   46  A    between atoms: _101  and  _102
REMARK   47  A    between atoms: _101  and  _104
REMARK   48  A    between atoms: _104  and  _105
REMARK   49  A    between atoms: _108  and  _110
REMARK   50  A    between atoms: _110  and  _111
REMARK   51  A    between atoms: _110  and  _113
REMARK   52  A    between atoms: _113  and  _114
REMARK   53  A    between atoms: _119  and  _120
REMARK   54  A    between atoms: _122  and  _124
REMARK   55  A    between atoms: _124  and  _125
REMARK   56  A    between atoms: _124  and  _127
REMARK   57  A    between atoms: _127  and  _128
REMARK   58  A    between atoms: _128  and  _129
REMARK   59  A    between atoms: _129  and  _130
REMARK   60  A    between atoms: _130  and  _131
REMARK   61  A    between atoms: _135  and  _137
REMARK   62  A    between atoms: _137  and  _138
REMARK   63  A    between atoms: _137  and  _140
REMARK   64  A    between atoms: _140  and  _141
REMARK   65  A    between atoms: _143  and  _145
REMARK   66  A    between atoms: _145  and  _146
REMARK   67  A    between atoms: _145  and  _148
REMARK   68  A    between atoms: _151  and  _153
REMARK   69  A    between atoms: _153  and  _154
REMARK   70  A    between atoms: _153  and  _156
REMARK   71  A    between atoms: _156  and  _157
REMARK   72  A    between atoms: _160  and  _162
REMARK   73  A    between atoms: _162  and  _163
REMARK   74  A    between atoms: _162  and  _165
REMARK   75  A    between atoms: _165  and  _166
REMARK   76  A    between atoms: _169  and  _171
REMARK   77  A    between atoms: _171  and  _172
REMARK   78  A    between atoms: _171  and  _174
REMARK   79  A    between atoms: _174  and  _175
REMARK   80  A    between atoms: _179  and  _180
REMARK   81  A    between atoms: _185  and  _187
REMARK   82  A    between atoms: _187  and  _188
REMARK   83  A    between atoms: _187  and  _190
REMARK   84  A    between atoms: _190  and  _191
REMARK   85  A    between atoms: _194  and  _196
REMARK   86  A    between atoms: _196  and  _197
REMARK   87  A    between atoms: _196  and  _199
REMARK   88  A    between atoms: _202  and  _204
REMARK   89  A    between atoms: _204  and  _205
REMARK   90  A    between atoms: _207  and  _209
REMARK   91  A    between atoms: _209  and  _210
REMARK   92  A    between atoms: _209  and  _212
REMARK   93  A    between atoms: _212  and  _213
REMARK   94  A    between atoms: _219  and  _221
REMARK   95  A    between atoms: _221  and  _222
REMARK   96  A    between atoms: _221  and  _224
REMARK   97  A    between atoms: _224  and  _225
REMARK   98  A    between atoms: _230  and  _232
REMARK   99  A    between atoms: _232  and  _233
REMARK  100  A    between atoms: _232  and  _235
REMARK  101  A    between atoms: _235  and  _236
REMARK  102  A    between atoms: _239  and  _241
REMARK  103  A    between atoms: _241  and  _242
REMARK  104  A    between atoms: _241  and  _244
REMARK  105  A    between atoms: _247  and  _249
REMARK  106  A    between atoms: _249  and  _250
REMARK  107  A    between atoms: _252  and  _254
REMARK  108  A    between atoms: _254  and  _255
REMARK  109  A    between atoms: _257  and  _259
REMARK  110  A    between atoms: _259  and  _260
REMARK  111  A    between atoms: _259  and  _262
REMARK  112  A    between atoms: _262  and  _263
REMARK  113  A    between atoms: _266  and  _268
REMARK  114  A    between atoms: _268  and  _269
REMARK  115  A    between atoms: _268  and  _271
REMARK  116  A    between atoms: _271  and  _272
REMARK  117  A    between atoms: _275  and  _277
REMARK  118  A    between atoms: _277  and  _278
REMARK  119  A    between atoms: _277  and  _280
REMARK  120  A    between atoms: _280  and  _281
REMARK  121  A    between atoms: _284  and  _286
REMARK  122  A    between atoms: _286  and  _287
REMARK  123  A    between atoms: _286  and  _289
REMARK  124  A    between atoms: _289  and  _290
REMARK  125  A    between atoms: _290  and  _291
REMARK  126  A    between atoms: _291  and  _292
REMARK  127  A    between atoms: _301  and  _303
REMARK  128  A    between atoms: _303  and  _304
REMARK  129  A    between atoms: _303  and  _306
REMARK  130  A    between atoms: _306  and  _307
REMARK  131  A    between atoms: _317  and  _319
REMARK  132  A    between atoms: _319  and  _320
REMARK  133  A    between atoms: _319  and  _322
REMARK  134  A    between atoms: _325  and  _327
REMARK  135  A    between atoms: _327  and  _328
REMARK  136  A    between atoms: _327  and  _330
REMARK  137  A    between atoms: _333  and  _335
REMARK  138  A    between atoms: _335  and  _336
REMARK  139  A    between atoms: _335  and  _338
REMARK  140  A    between atoms: _338  and  _339
REMARK  141  A    between atoms: _342  and  _344
REMARK  142  A    between atoms: _344  and  _345
REMARK  143  A    between atoms: _344  and  _347
REMARK  144  A    between atoms: _349  and  _351
REMARK  145  A    between atoms: _351  and  _352
REMARK  146  A    between atoms: _355  and  _357
REMARK  147  A    between atoms: _357  and  _358
REMARK  148  A    between atoms: _357  and  _360
REMARK  149  A    between atoms: _360  and  _361
REMARK  150  A    between atoms: _361  and  _362
REMARK  151  A    between atoms: _362  and  _363
REMARK  152  A    between atoms: _372  and  _374
REMARK  153  A    between atoms: _374  and  _375
REMARK  154  A    between atoms: _378  and  _380
REMARK  155  A    between atoms: _380  and  _381
REMARK  156  A    between atoms: _380  and  _383
REMARK  157  A    between atoms: _383  and  _384
REMARK  158  A    between atoms: _389  and  _391
REMARK  159  A    between atoms: _391  and  _392
REMARK  160  A    between atoms: _391  and  _394
REMARK  161  A    between atoms: _394  and  _395
REMARK  162  A    between atoms: _395  and  _396
REMARK  163  A    between atoms: _396  and  _397
REMARK  164  A    between atoms: _397  and  _398
REMARK  165  A    between atoms: _402  and  _404
REMARK  166  A    between atoms: _404  and  _405
REMARK  167  A    between atoms: _404  and  _407
REMARK  168  A    between atoms: _407  and  _408
REMARK  169  A    between atoms: _408  and  _409
REMARK  170  A    between atoms: _414  and  _416
REMARK  171  A    between atoms: _416  and  _417
REMARK  172  A    between atoms: _416  and  _419
REMARK  173  A    between atoms: _419  and  _420
REMARK  174  A    between atoms: _423  and  _425
REMARK  175  A    between atoms: _425  and  _426
REMARK  176  A    between atoms: _425  and  _428
REMARK  177  A    between atoms: _428  and  _429
REMARK  178  A    between atoms: _433  and  _434
REMARK  179  A    between atoms: _439  and  _441
REMARK  180  A    between atoms: _441  and  _442
REMARK  181  A    between atoms: _441  and  _444
REMARK  182  A    between atoms: _444  and  _445
REMARK  183  A    between atoms: _447  and  _449
REMARK  184  A    between atoms: _449  and  _450
REMARK  185  A    between atoms: _449  and  _452
REMARK  186  A    between atoms: _454  and  _456
REMARK  187  A    between atoms: _456  and  _457
REMARK  188  A    between atoms: _460  and  _462
REMARK  189  A    between atoms: _462  and  _463
REMARK  190  A    between atoms: _462  and  _465
REMARK  191  A    between atoms: _465  and  _466
REMARK  192  A    between atoms: _469  and  _471
REMARK  193  A    between atoms: _471  and  _472
REMARK  194  A    between atoms: _471  and  _474
REMARK  195  A    between atoms: _474  and  _475
REMARK  196  A    between atoms: _477  and  _479
REMARK  197  A    between atoms: _479  and  _480
REMARK  198  A    between atoms: _482  and  _484
REMARK  199  A    between atoms: _484  and  _485
REMARK  200  A    between atoms: _484  and  _487
REMARK  201  A    between atoms: _487  and  _488
REMARK  202  A    between atoms: _491  and  _493
REMARK  203  A    between atoms: _493  and  _494
REMARK  204  A    between atoms: _493  and  _496
REMARK  205  A    between atoms: _496  and  _497
REMARK  206  A    between atoms: _500  and  _502
REMARK  207  A    between atoms: _502  and  _503
REMARK  208  A    between atoms: _502  and  _505
REMARK  209  A    between atoms: _505  and  _506
REMARK                            x       y       z     vdW  Elec       q    Type
REMARK                         _______ _______ _______ _____ _____    ______ ____
ROOT
ATOM      1  O   HOH     1       7.146  13.303  52.565  0.00  0.00    +0.000 OA
ENDROOT
TORSDOF 0
