REMARK  Name = ../refined-set-2016/3pcf/3pcf_pocket.pdb
REMARK  137 active torsions:
REMARK  status: ('A' for Active; 'I' for Inactive)
REMARK    1  A    between atoms: _1  and  _3
REMARK    2  A    between atoms: _3  and  _4
REMARK    3  A    between atoms: _3  and  _6
REMARK    4  A    between atoms: _6  and  _7
REMARK    5  A    between atoms: _7  and  _8
REMARK    6  A    between atoms: _13  and  _15
REMARK    7  A    between atoms: _15  and  _16
REMARK    8  A    between atoms: _15  and  _18
REMARK    9  A    between atoms: _18  and  _19
REMARK   10  A    between atoms: _22  and  _24
REMARK   11  A    between atoms: _24  and  _25
REMARK   12  A    between atoms: _28  and  _30
REMARK   13  A    between atoms: _30  and  _31
REMARK   14  A    between atoms: _34  and  _35
REMARK   15  A    between atoms: _40  and  _42
REMARK   16  A    between atoms: _42  and  _43
REMARK   17  A    between atoms: _42  and  _45
REMARK   18  A    between atoms: _45  and  _46
REMARK   19  A    between atoms: _51  and  _52
REMARK   20  A    between atoms: _54  and  _56
REMARK   21  A    between atoms: _56  and  _57
REMARK   22  A    between atoms: _56  and  _59
REMARK   23  A    between atoms: _62  and  _64
REMARK   24  A    between atoms: _64  and  _65
REMARK   25  A    between atoms: _64  and  _67
REMARK   26  A    between atoms: _67  and  _68
REMARK   27  A    between atoms: _71  and  _73
REMARK   28  A    between atoms: _73  and  _74
REMARK   29  A    between atoms: _77  and  _79
REMARK   30  A    between atoms: _79  and  _80
REMARK   31  A    between atoms: _79  and  _82
REMARK   32  A    between atoms: _82  and  _83
REMARK   33  A    between atoms: _83  and  _84
REMARK   34  A    between atoms: _84  and  _85
REMARK   35  A    between atoms: _94  and  _96
REMARK   36  A    between atoms: _96  and  _97
REMARK   37  A    between atoms: _99  and  _101
REMARK   38  A    between atoms: _101  and  _102
REMARK   39  A    between atoms: _101  and  _104
REMARK   40  A    between atoms: _104  and  _105
REMARK   41  A    between atoms: _108  and  _110
REMARK   42  A    between atoms: _110  and  _111
REMARK   43  A    between atoms: _110  and  _113
REMARK   44  A    between atoms: _113  and  _114
REMARK   45  A    between atoms: _119  and  _121
REMARK   46  A    between atoms: _121  and  _122
REMARK   47  A    between atoms: _121  and  _124
REMARK   48  A    between atoms: _124  and  _125
REMARK   49  A    between atoms: _130  and  _131
REMARK   50  A    between atoms: _133  and  _135
REMARK   51  A    between atoms: _135  and  _136
REMARK   52  A    between atoms: _135  and  _138
REMARK   53  A    between atoms: _138  and  _139
REMARK   54  A    between atoms: _139  and  _140
REMARK   55  A    between atoms: _140  and  _141
REMARK   56  A    between atoms: _141  and  _142
REMARK   57  A    between atoms: _146  and  _148
REMARK   58  A    between atoms: _148  and  _149
REMARK   59  A    between atoms: _148  and  _151
REMARK   60  A    between atoms: _151  and  _152
REMARK   61  A    between atoms: _155  and  _157
REMARK   62  A    between atoms: _157  and  _158
REMARK   63  A    between atoms: _157  and  _160
REMARK   64  A    between atoms: _160  and  _161
REMARK   65  A    between atoms: _163  and  _165
REMARK   66  A    between atoms: _165  and  _166
REMARK   67  A    between atoms: _165  and  _168
REMARK   68  A    between atoms: _168  and  _169
REMARK   69  A    between atoms: _169  and  _170
REMARK   70  A    between atoms: _170  and  _171
REMARK   71  A    between atoms: _180  and  _182
REMARK   72  A    between atoms: _182  and  _183
REMARK   73  A    between atoms: _182  and  _185
REMARK   74  A    between atoms: _185  and  _186
REMARK   75  A    between atoms: _196  and  _198
REMARK   76  A    between atoms: _198  and  _199
REMARK   77  A    between atoms: _202  and  _204
REMARK   78  A    between atoms: _204  and  _205
REMARK   79  A    between atoms: _204  and  _207
REMARK   80  A    between atoms: _207  and  _208
REMARK   81  A    between atoms: _213  and  _214
REMARK   82  A    between atoms: _216  and  _218
REMARK   83  A    between atoms: _218  and  _219
REMARK   84  A    between atoms: _218  and  _221
REMARK   85  A    between atoms: _221  and  _222
REMARK   86  A    between atoms: _227  and  _228
REMARK   87  A    between atoms: _231  and  _232
REMARK   88  A    between atoms: _237  and  _239
REMARK   89  A    between atoms: _239  and  _240
REMARK   90  A    between atoms: _239  and  _242
REMARK   91  A    between atoms: _242  and  _243
REMARK   92  A    between atoms: _253  and  _255
REMARK   93  A    between atoms: _255  and  _256
REMARK   94  A    between atoms: _255  and  _258
REMARK   95  A    between atoms: _258  and  _259
REMARK   96  A    between atoms: _259  and  _260
REMARK   97  A    between atoms: _260  and  _261
REMARK   98  A    between atoms: _270  and  _272
REMARK   99  A    between atoms: _272  and  _273
REMARK  100  A    between atoms: _272  and  _275
REMARK  101  A    between atoms: _275  and  _276
REMARK  102  A    between atoms: _281  and  _283
REMARK  103  A    between atoms: _283  and  _284
REMARK  104  A    between atoms: _283  and  _286
REMARK  105  A    between atoms: _286  and  _287
REMARK  106  A    between atoms: _287  and  _288
REMARK  107  A    between atoms: _288  and  _289
REMARK  108  A    between atoms: _299  and  _300
REMARK  109  A    between atoms: _305  and  _307
REMARK  110  A    between atoms: _318  and  _321
REMARK  111  A    between atoms: _321  and  _322
REMARK  112  A    between atoms: _327  and  _328
REMARK  113  A    between atoms: _336  and  _338
REMARK  114  A    between atoms: _338  and  _339
REMARK  115  A    between atoms: _338  and  _341
REMARK  116  A    between atoms: _341  and  _342
REMARK  117  A    between atoms: _345  and  _347
REMARK  118  A    between atoms: _347  and  _348
REMARK  119  A    between atoms: _347  and  _350
REMARK  120  A    between atoms: _351  and  _352
REMARK  121  A    between atoms: _357  and  _359
REMARK  122  A    between atoms: _359  and  _360
REMARK  123  A    between atoms: _359  and  _362
REMARK  124  A    between atoms: _362  and  _363
REMARK  125  A    between atoms: _368  and  _369
REMARK  126  A    between atoms: _371  and  _373
REMARK  127  A    between atoms: _373  and  _374
REMARK  128  A    between atoms: _373  and  _376
REMARK  129  A    between atoms: _378  and  _380
REMARK  130  A    between atoms: _380  and  _381
REMARK  131  A    between atoms: _380  and  _383
REMARK  132  A    between atoms: _383  and  _384
REMARK  133  A    between atoms: _387  and  _389
REMARK  134  A    between atoms: _389  and  _390
REMARK  135  A    between atoms: _389  and  _392
REMARK  136  A    between atoms: _392  and  _393
REMARK  137  A    between atoms: _393  and  _394
REMARK                            x       y       z     vdW  Elec       q    Type
REMARK                         _______ _______ _______ _____ _____    ______ ____
ROOT
ATOM      1  C   GLY A   4      18.998  10.127  42.925  0.00  0.00    +0.246 C 
ATOM      2  N   PRO A   5      18.219  11.009  43.547  0.00  0.00    -0.272 N 
ATOM      3  CA  PRO A   5      18.523  11.558  44.870  0.00  0.00    +0.152 C 
ATOM      4  CB  PRO A   5      17.395  12.646  45.060  0.00  0.00    +0.031 C 
ATOM      5  CG  PRO A   5      16.265  12.057  44.239  0.00  0.00    +0.024 C 
ATOM      6  CD  PRO A   5      16.994  11.624  42.976  0.00  0.00    +0.094 C 
ATOM      7  O   GLY A   4      20.015   9.634  43.435  0.00  0.00    -0.273 OA
ENDROOT
BRANCH   3   8
ATOM      8  C   PRO A   5      18.516  10.574  46.009  0.00  0.00    +0.241 C 
ATOM      9  O   PRO A   5      19.147  10.803  47.058  0.00  0.00    -0.273 OA
ATOM     10  N   TYR A   6      17.874   9.424  45.846  0.00  0.00    -0.297 N 
ATOM     11  H   TYR A   6      17.434   9.236  44.923  0.00  0.00    +0.150 HD
BRANCH  10  12
ATOM     12  CA  TYR A   6      17.749   8.401  46.893  0.00  0.00    +0.153 C 
BRANCH  12  13
ATOM     13  C   TYR A   6      18.649   7.216  46.760  0.00  0.00    +0.241 C 
ATOM     14  O   TYR A   6      18.342   6.122  47.349  0.00  0.00    -0.273 OA
ATOM     15  N   VAL A   7      19.682   7.367  45.958  0.00  0.00    -0.298 N 
ATOM     16  H   VAL A   7      19.838   8.271  45.468  0.00  0.00    +0.150 HD
BRANCH  15  17
ATOM     17  CA  VAL A   7      20.636   6.221  45.755  0.00  0.00    +0.137 C 
BRANCH  17  18
ATOM     18  CB  VAL A   7      21.791   6.789  44.854  0.00  0.00    +0.026 C 
ATOM     19  CG2 VAL A   7      22.442   7.986  45.559  0.00  0.00    +0.002 C 
ATOM     20  CG1 VAL A   7      22.816   5.725  44.500  0.00  0.00    +0.002 C 
ENDBRANCH  17  18
BRANCH  17  21
ATOM     21  C   VAL A   7      21.132   5.658  47.072  0.00  0.00    +0.227 C 
ATOM     22  O   VAL A   7      21.493   4.464  47.176  0.00  0.00    -0.286 OA
ENDBRANCH  17  21
ENDBRANCH  15  17
ENDBRANCH  12  13
BRANCH  12  23
ATOM     23  CB  TYR A   6      16.245   7.972  46.989  0.00  0.00    +0.055 C 
BRANCH  23  24
ATOM     24  CG  TYR A   6      15.353   9.198  47.121  0.00  0.00    -0.020 A 
ATOM     25  CD2 TYR A   6      15.661  10.164  48.096  0.00  0.00    -0.001 A 
ATOM     26  CE2 TYR A   6      14.868  11.303  48.248  0.00  0.00    +0.036 A 
ATOM     27  CZ  TYR A   6      13.789  11.491  47.379  0.00  0.00    +0.134 A 
ATOM     28  CE1 TYR A   6      13.514  10.578  46.364  0.00  0.00    +0.036 A 
ATOM     29  CD1 TYR A   6      14.321   9.453  46.241  0.00  0.00    -0.001 A 
BRANCH  27  30
ATOM     30  OH  TYR A   6      13.059  12.656  47.444  0.00  0.00    -0.506 OA
ATOM     31  HH  TYR A   6      12.100  12.437  47.559  0.00  0.00    +0.292 HD
ENDBRANCH  27  30
ENDBRANCH  23  24
ENDBRANCH  12  23
ENDBRANCH  10  12
ENDBRANCH   3   8
BRANCH   1  32
ATOM     32  CA  GLY A   4      18.504   9.678  41.550  0.00  0.00    +0.176 C 
BRANCH  32  35
ATOM     33  C   ALA A   3      19.823   7.667  41.093  0.00  0.00    +0.241 C 
ATOM     34  O   ALA A   3      19.287   6.918  41.951  0.00  0.00    -0.273 OA
ATOM     35  N   GLY A   4      19.535   8.919  40.848  0.00  0.00    -0.295 N 
ATOM     36  H   GLY A   4      20.076   9.406  40.105  0.00  0.00    +0.150 HD
BRANCH  33  37
ATOM     37  CA  ALA A   3      20.981   7.054  40.263  0.00  0.00    +0.149 C 
ATOM     38  CB  ALA A   3      22.268   6.992  41.031  0.00  0.00    +0.031 C 
BRANCH  37  40
ATOM     39  C   THR A   2      20.252   7.678  38.021  0.00  0.00    +0.243 C 
ATOM     40  N   ALA A   3      21.108   7.774  39.018  0.00  0.00    -0.297 N 
ATOM     41  H   ALA A   3      21.925   8.407  38.901  0.00  0.00    +0.150 HD
ATOM     42  O   THR A   2      19.217   6.999  38.052  0.00  0.00    -0.273 OA
BRANCH  39  43
ATOM     43  CA  THR A   2      20.537   8.580  36.807  0.00  0.00    +0.176 C 
BRANCH  43  46
ATOM     44  C   GLN A   1      20.416   6.682  35.302  0.00  0.00    +0.238 C 
ATOM     45  O   GLN A   1      21.257   5.969  35.912  0.00  0.00    -0.274 OA
ATOM     46  N   THR A   2      20.007   7.876  35.624  0.00  0.00    -0.295 N 
ATOM     47  H   THR A   2      19.290   8.344  35.033  0.00  0.00    +0.150 HD
BRANCH  44  48
ATOM     48  CA  GLN A   1      19.714   6.104  34.054  0.00  0.00    +0.145 C 
BRANCH  48  49
ATOM     49  N   GLN A   1      20.703   5.137  33.514  0.00  0.00    -0.238 NA
ATOM     50  H   GLN A   1      21.295   4.580  34.163  0.00  0.00    +0.142 HD
ENDBRANCH  48  49
BRANCH  48  51
ATOM     51  CB  GLN A   1      18.343   5.526  34.369  0.00  0.00    +0.036 C 
BRANCH  51  52
ATOM     52  CG  GLN A   1      17.560   5.014  33.195  0.00  0.00    +0.087 C 
BRANCH  52  53
ATOM     53  CD  GLN A   1      16.745   6.032  32.439  0.00  0.00    +0.219 C 
ATOM     54  OE1 GLN A   1      15.535   6.150  32.652  0.00  0.00    -0.275 OA
ATOM     55  NE2 GLN A   1      17.375   6.776  31.525  0.00  0.00    -0.329 N 
ATOM     56 HE21 GLN A   1      18.396   6.653  31.368  0.00  0.00    +0.145 HD
ATOM     57 HE22 GLN A   1      16.845   7.478  30.970  0.00  0.00    +0.145 HD
ENDBRANCH  52  53
ENDBRANCH  51  52
ENDBRANCH  48  51
ENDBRANCH  44  48
ENDBRANCH  43  46
BRANCH  43  58
ATOM     58  CB  THR A   2      19.792   9.940  37.002  0.00  0.00    +0.137 C 
ATOM     59  CG2 THR A   2      18.248   9.736  37.235  0.00  0.00    +0.034 C 
BRANCH  58  60
ATOM     60  OG1 THR A   2      20.352  10.654  38.115  0.00  0.00    -0.382 OA
ATOM     61  HG1 THR A   2      21.311  10.830  37.944  0.00  0.00    +0.210 HD
ENDBRANCH  58  60
ENDBRANCH  43  58
ENDBRANCH  39  43
ENDBRANCH  37  40
ENDBRANCH  33  37
ENDBRANCH  32  35
ENDBRANCH   1  32
TORSDOF 22
REMARK  Name = ../refined-set-2016/3pcf/3pcf_pocket.pdb
REMARK  137 active torsions:
REMARK  status: ('A' for Active; 'I' for Inactive)
REMARK    1  A    between atoms: _1  and  _3
REMARK    2  A    between atoms: _3  and  _4
REMARK    3  A    between atoms: _3  and  _6
REMARK    4  A    between atoms: _6  and  _7
REMARK    5  A    between atoms: _7  and  _8
REMARK    6  A    between atoms: _13  and  _15
REMARK    7  A    between atoms: _15  and  _16
REMARK    8  A    between atoms: _15  and  _18
REMARK    9  A    between atoms: _18  and  _19
REMARK   10  A    between atoms: _22  and  _24
REMARK   11  A    between atoms: _24  and  _25
REMARK   12  A    between atoms: _28  and  _30
REMARK   13  A    between atoms: _30  and  _31
REMARK   14  A    between atoms: _34  and  _35
REMARK   15  A    between atoms: _40  and  _42
REMARK   16  A    between atoms: _42  and  _43
REMARK   17  A    between atoms: _42  and  _45
REMARK   18  A    between atoms: _45  and  _46
REMARK   19  A    between atoms: _51  and  _52
REMARK   20  A    between atoms: _54  and  _56
REMARK   21  A    between atoms: _56  and  _57
REMARK   22  A    between atoms: _56  and  _59
REMARK   23  A    between atoms: _62  and  _64
REMARK   24  A    between atoms: _64  and  _65
REMARK   25  A    between atoms: _64  and  _67
REMARK   26  A    between atoms: _67  and  _68
REMARK   27  A    between atoms: _71  and  _73
REMARK   28  A    between atoms: _73  and  _74
REMARK   29  A    between atoms: _77  and  _79
REMARK   30  A    between atoms: _79  and  _80
REMARK   31  A    between atoms: _79  and  _82
REMARK   32  A    between atoms: _82  and  _83
REMARK   33  A    between atoms: _83  and  _84
REMARK   34  A    between atoms: _84  and  _85
REMARK   35  A    between atoms: _94  and  _96
REMARK   36  A    between atoms: _96  and  _97
REMARK   37  A    between atoms: _99  and  _101
REMARK   38  A    between atoms: _101  and  _102
REMARK   39  A    between atoms: _101  and  _104
REMARK   40  A    between atoms: _104  and  _105
REMARK   41  A    between atoms: _108  and  _110
REMARK   42  A    between atoms: _110  and  _111
REMARK   43  A    between atoms: _110  and  _113
REMARK   44  A    between atoms: _113  and  _114
REMARK   45  A    between atoms: _119  and  _121
REMARK   46  A    between atoms: _121  and  _122
REMARK   47  A    between atoms: _121  and  _124
REMARK   48  A    between atoms: _124  and  _125
REMARK   49  A    between atoms: _130  and  _131
REMARK   50  A    between atoms: _133  and  _135
REMARK   51  A    between atoms: _135  and  _136
REMARK   52  A    between atoms: _135  and  _138
REMARK   53  A    between atoms: _138  and  _139
REMARK   54  A    between atoms: _139  and  _140
REMARK   55  A    between atoms: _140  and  _141
REMARK   56  A    between atoms: _141  and  _142
REMARK   57  A    between atoms: _146  and  _148
REMARK   58  A    between atoms: _148  and  _149
REMARK   59  A    between atoms: _148  and  _151
REMARK   60  A    between atoms: _151  and  _152
REMARK   61  A    between atoms: _155  and  _157
REMARK   62  A    between atoms: _157  and  _158
REMARK   63  A    between atoms: _157  and  _160
REMARK   64  A    between atoms: _160  and  _161
REMARK   65  A    between atoms: _163  and  _165
REMARK   66  A    between atoms: _165  and  _166
REMARK   67  A    between atoms: _165  and  _168
REMARK   68  A    between atoms: _168  and  _169
REMARK   69  A    between atoms: _169  and  _170
REMARK   70  A    between atoms: _170  and  _171
REMARK   71  A    between atoms: _180  and  _182
REMARK   72  A    between atoms: _182  and  _183
REMARK   73  A    between atoms: _182  and  _185
REMARK   74  A    between atoms: _185  and  _186
REMARK   75  A    between atoms: _196  and  _198
REMARK   76  A    between atoms: _198  and  _199
REMARK   77  A    between atoms: _202  and  _204
REMARK   78  A    between atoms: _204  and  _205
REMARK   79  A    between atoms: _204  and  _207
REMARK   80  A    between atoms: _207  and  _208
REMARK   81  A    between atoms: _213  and  _214
REMARK   82  A    between atoms: _216  and  _218
REMARK   83  A    between atoms: _218  and  _219
REMARK   84  A    between atoms: _218  and  _221
REMARK   85  A    between atoms: _221  and  _222
REMARK   86  A    between atoms: _227  and  _228
REMARK   87  A    between atoms: _231  and  _232
REMARK   88  A    between atoms: _237  and  _239
REMARK   89  A    between atoms: _239  and  _240
REMARK   90  A    between atoms: _239  and  _242
REMARK   91  A    between atoms: _242  and  _243
REMARK   92  A    between atoms: _253  and  _255
REMARK   93  A    between atoms: _255  and  _256
REMARK   94  A    between atoms: _255  and  _258
REMARK   95  A    between atoms: _258  and  _259
REMARK   96  A    between atoms: _259  and  _260
REMARK   97  A    between atoms: _260  and  _261
REMARK   98  A    between atoms: _270  and  _272
REMARK   99  A    between atoms: _272  and  _273
REMARK  100  A    between atoms: _272  and  _275
REMARK  101  A    between atoms: _275  and  _276
REMARK  102  A    between atoms: _281  and  _283
REMARK  103  A    between atoms: _283  and  _284
REMARK  104  A    between atoms: _283  and  _286
REMARK  105  A    between atoms: _286  and  _287
REMARK  106  A    between atoms: _287  and  _288
REMARK  107  A    between atoms: _288  and  _289
REMARK  108  A    between atoms: _299  and  _300
REMARK  109  A    between atoms: _305  and  _307
REMARK  110  A    between atoms: _318  and  _321
REMARK  111  A    between atoms: _321  and  _322
REMARK  112  A    between atoms: _327  and  _328
REMARK  113  A    between atoms: _336  and  _338
REMARK  114  A    between atoms: _338  and  _339
REMARK  115  A    between atoms: _338  and  _341
REMARK  116  A    between atoms: _341  and  _342
REMARK  117  A    between atoms: _345  and  _347
REMARK  118  A    between atoms: _347  and  _348
REMARK  119  A    between atoms: _347  and  _350
REMARK  120  A    between atoms: _351  and  _352
REMARK  121  A    between atoms: _357  and  _359
REMARK  122  A    between atoms: _359  and  _360
REMARK  123  A    between atoms: _359  and  _362
REMARK  124  A    between atoms: _362  and  _363
REMARK  125  A    between atoms: _368  and  _369
REMARK  126  A    between atoms: _371  and  _373
REMARK  127  A    between atoms: _373  and  _374
REMARK  128  A    between atoms: _373  and  _376
REMARK  129  A    between atoms: _378  and  _380
REMARK  130  A    between atoms: _380  and  _381
REMARK  131  A    between atoms: _380  and  _383
REMARK  132  A    between atoms: _383  and  _384
REMARK  133  A    between atoms: _387  and  _389
REMARK  134  A    between atoms: _389  and  _390
REMARK  135  A    between atoms: _389  and  _392
REMARK  136  A    between atoms: _392  and  _393
REMARK  137  A    between atoms: _393  and  _394
REMARK                            x       y       z     vdW  Elec       q    Type
REMARK                         _______ _______ _______ _____ _____    ______ ____
ROOT
ATOM      1  CA  ASP A   1      23.842  13.803  46.994  0.00  0.00    +0.144 C 
ENDROOT
BRANCH   1   2
ATOM      2  N   ASP A   1      24.412  15.143  47.163  0.00  0.00    -0.239 NA
ATOM      3  H   ASP A   1      24.492  15.772  46.339  0.00  0.00    +0.142 HD
ENDBRANCH   1   2
BRANCH   1   4
ATOM      4  C   ASP A   1      24.641  12.918  46.077  0.00  0.00    +0.225 C 
ATOM      5  O   ASP A   1      24.088  11.962  45.496  0.00  0.00    -0.287 OA
ENDBRANCH   1   4
BRANCH   1   6
ATOM      6  CB  ASP A   1      22.360  13.982  46.557  0.00  0.00    +0.139 C 
BRANCH   6   7
ATOM      7  CG  ASP A   1      22.198  14.870  45.372  0.00  0.00    +0.367 C 
ATOM      8  OD2 ASP A   1      21.046  15.184  45.043  0.00  0.00    -0.246 OA
ATOM      9  OD1 ASP A   1      23.167  15.292  44.690  0.00  0.00    -0.246 OA
ENDBRANCH   6   7
ENDBRANCH   1   6
TORSDOF 4
REMARK  Name = ../refined-set-2016/3pcf/3pcf_pocket.pdb
REMARK  137 active torsions:
REMARK  status: ('A' for Active; 'I' for Inactive)
REMARK    1  A    between atoms: _1  and  _3
REMARK    2  A    between atoms: _3  and  _4
REMARK    3  A    between atoms: _3  and  _6
REMARK    4  A    between atoms: _6  and  _7
REMARK    5  A    between atoms: _7  and  _8
REMARK    6  A    between atoms: _13  and  _15
REMARK    7  A    between atoms: _15  and  _16
REMARK    8  A    between atoms: _15  and  _18
REMARK    9  A    between atoms: _18  and  _19
REMARK   10  A    between atoms: _22  and  _24
REMARK   11  A    between atoms: _24  and  _25
REMARK   12  A    between atoms: _28  and  _30
REMARK   13  A    between atoms: _30  and  _31
REMARK   14  A    between atoms: _34  and  _35
REMARK   15  A    between atoms: _40  and  _42
REMARK   16  A    between atoms: _42  and  _43
REMARK   17  A    between atoms: _42  and  _45
REMARK   18  A    between atoms: _45  and  _46
REMARK   19  A    between atoms: _51  and  _52
REMARK   20  A    between atoms: _54  and  _56
REMARK   21  A    between atoms: _56  and  _57
REMARK   22  A    between atoms: _56  and  _59
REMARK   23  A    between atoms: _62  and  _64
REMARK   24  A    between atoms: _64  and  _65
REMARK   25  A    between atoms: _64  and  _67
REMARK   26  A    between atoms: _67  and  _68
REMARK   27  A    between atoms: _71  and  _73
REMARK   28  A    between atoms: _73  and  _74
REMARK   29  A    between atoms: _77  and  _79
REMARK   30  A    between atoms: _79  and  _80
REMARK   31  A    between atoms: _79  and  _82
REMARK   32  A    between atoms: _82  and  _83
REMARK   33  A    between atoms: _83  and  _84
REMARK   34  A    between atoms: _84  and  _85
REMARK   35  A    between atoms: _94  and  _96
REMARK   36  A    between atoms: _96  and  _97
REMARK   37  A    between atoms: _99  and  _101
REMARK   38  A    between atoms: _101  and  _102
REMARK   39  A    between atoms: _101  and  _104
REMARK   40  A    between atoms: _104  and  _105
REMARK   41  A    between atoms: _108  and  _110
REMARK   42  A    between atoms: _110  and  _111
REMARK   43  A    between atoms: _110  and  _113
REMARK   44  A    between atoms: _113  and  _114
REMARK   45  A    between atoms: _119  and  _121
REMARK   46  A    between atoms: _121  and  _122
REMARK   47  A    between atoms: _121  and  _124
REMARK   48  A    between atoms: _124  and  _125
REMARK   49  A    between atoms: _130  and  _131
REMARK   50  A    between atoms: _133  and  _135
REMARK   51  A    between atoms: _135  and  _136
REMARK   52  A    between atoms: _135  and  _138
REMARK   53  A    between atoms: _138  and  _139
REMARK   54  A    between atoms: _139  and  _140
REMARK   55  A    between atoms: _140  and  _141
REMARK   56  A    between atoms: _141  and  _142
REMARK   57  A    between atoms: _146  and  _148
REMARK   58  A    between atoms: _148  and  _149
REMARK   59  A    between atoms: _148  and  _151
REMARK   60  A    between atoms: _151  and  _152
REMARK   61  A    between atoms: _155  and  _157
REMARK   62  A    between atoms: _157  and  _158
REMARK   63  A    between atoms: _157  and  _160
REMARK   64  A    between atoms: _160  and  _161
REMARK   65  A    between atoms: _163  and  _165
REMARK   66  A    between atoms: _165  and  _166
REMARK   67  A    between atoms: _165  and  _168
REMARK   68  A    between atoms: _168  and  _169
REMARK   69  A    between atoms: _169  and  _170
REMARK   70  A    between atoms: _170  and  _171
REMARK   71  A    between atoms: _180  and  _182
REMARK   72  A    between atoms: _182  and  _183
REMARK   73  A    between atoms: _182  and  _185
REMARK   74  A    between atoms: _185  and  _186
REMARK   75  A    between atoms: _196  and  _198
REMARK   76  A    between atoms: _198  and  _199
REMARK   77  A    between atoms: _202  and  _204
REMARK   78  A    between atoms: _204  and  _205
REMARK   79  A    between atoms: _204  and  _207
REMARK   80  A    between atoms: _207  and  _208
REMARK   81  A    between atoms: _213  and  _214
REMARK   82  A    between atoms: _216  and  _218
REMARK   83  A    between atoms: _218  and  _219
REMARK   84  A    between atoms: _218  and  _221
REMARK   85  A    between atoms: _221  and  _222
REMARK   86  A    between atoms: _227  and  _228
REMARK   87  A    between atoms: _231  and  _232
REMARK   88  A    between atoms: _237  and  _239
REMARK   89  A    between atoms: _239  and  _240
REMARK   90  A    between atoms: _239  and  _242
REMARK   91  A    between atoms: _242  and  _243
REMARK   92  A    between atoms: _253  and  _255
REMARK   93  A    between atoms: _255  and  _256
REMARK   94  A    between atoms: _255  and  _258
REMARK   95  A    between atoms: _258  and  _259
REMARK   96  A    between atoms: _259  and  _260
REMARK   97  A    between atoms: _260  and  _261
REMARK   98  A    between atoms: _270  and  _272
REMARK   99  A    between atoms: _272  and  _273
REMARK  100  A    between atoms: _272  and  _275
REMARK  101  A    between atoms: _275  and  _276
REMARK  102  A    between atoms: _281  and  _283
REMARK  103  A    between atoms: _283  and  _284
REMARK  104  A    between atoms: _283  and  _286
REMARK  105  A    between atoms: _286  and  _287
REMARK  106  A    between atoms: _287  and  _288
REMARK  107  A    between atoms: _288  and  _289
REMARK  108  A    between atoms: _299  and  _300
REMARK  109  A    between atoms: _305  and  _307
REMARK  110  A    between atoms: _318  and  _321
REMARK  111  A    between atoms: _321  and  _322
REMARK  112  A    between atoms: _327  and  _328
REMARK  113  A    between atoms: _336  and  _338
REMARK  114  A    between atoms: _338  and  _339
REMARK  115  A    between atoms: _338  and  _341
REMARK  116  A    between atoms: _341  and  _342
REMARK  117  A    between atoms: _345  and  _347
REMARK  118  A    between atoms: _347  and  _348
REMARK  119  A    between atoms: _347  and  _350
REMARK  120  A    between atoms: _351  and  _352
REMARK  121  A    between atoms: _357  and  _359
REMARK  122  A    between atoms: _359  and  _360
REMARK  123  A    between atoms: _359  and  _362
REMARK  124  A    between atoms: _362  and  _363
REMARK  125  A    between atoms: _368  and  _369
REMARK  126  A    between atoms: _371  and  _373
REMARK  127  A    between atoms: _373  and  _374
REMARK  128  A    between atoms: _373  and  _376
REMARK  129  A    between atoms: _378  and  _380
REMARK  130  A    between atoms: _380  and  _381
REMARK  131  A    between atoms: _380  and  _383
REMARK  132  A    between atoms: _383  and  _384
REMARK  133  A    between atoms: _387  and  _389
REMARK  134  A    between atoms: _389  and  _390
REMARK  135  A    between atoms: _389  and  _392
REMARK  136  A    between atoms: _392  and  _393
REMARK  137  A    between atoms: _393  and  _394
REMARK                            x       y       z     vdW  Elec       q    Type
REMARK                         _______ _______ _______ _____ _____    ______ ____
ROOT
ATOM      1  C   ARG A   2      21.310  14.064  39.487  0.00  0.00    +0.241 C 
ATOM      2  O   ARG A   2      22.185  14.810  39.928  0.00  0.00    -0.273 OA
ATOM      3  N   GLY A   3      20.785  14.051  38.299  0.00  0.00    -0.295 N 
ATOM      4  H   GLY A   3      20.072  13.329  38.070  0.00  0.00    +0.150 HD
ENDROOT
BRANCH   3   5
ATOM      5  CA  GLY A   3      21.165  15.018  37.278  0.00  0.00    +0.176 C 
BRANCH   5   6
ATOM      6  C   GLY A   3      22.244  14.385  36.390  0.00  0.00    +0.243 C 
ATOM      7  N   ILE A   4      22.878  13.330  36.853  0.00  0.00    -0.297 N 
ATOM      8  H   ILE A   4      22.635  12.959  37.793  0.00  0.00    +0.150 HD
ATOM      9  O   GLY A   3      22.432  14.979  35.326  0.00  0.00    -0.273 OA
BRANCH   7  10
ATOM     10  CA  ILE A   4      23.932  12.663  36.057  0.00  0.00    +0.149 C 
BRANCH  10  11
ATOM     11  C   ILE A   4      23.332  11.392  35.434  0.00  0.00    +0.241 C 
ATOM     12  O   ILE A   4      23.119  10.427  36.173  0.00  0.00    -0.273 OA
ATOM     13  N   ASN A   5      23.052  11.457  34.160  0.00  0.00    -0.298 N 
ATOM     14  H   ASN A   5      23.319  12.324  33.651  0.00  0.00    +0.150 HD
BRANCH  13  15
ATOM     15  CA  ASN A   5      22.395  10.408  33.403  0.00  0.00    +0.146 C 
BRANCH  15  16
ATOM     16  C   ASN A   5      23.201   9.113  33.271  0.00  0.00    +0.227 C 
ATOM     17  O   ASN A   5      22.641   8.023  33.356  0.00  0.00    -0.286 OA
ENDBRANCH  15  16
BRANCH  15  18
ATOM     18  CB  ASN A   5      21.873  10.923  32.086  0.00  0.00    +0.112 C 
BRANCH  18  19
ATOM     19  CG  ASN A   5      20.899  12.064  32.214  0.00  0.00    +0.222 C 
ATOM     20  OD1 ASN A   5      20.074  12.133  33.150  0.00  0.00    -0.275 OA
ATOM     21  ND2 ASN A   5      21.116  12.977  31.237  0.00  0.00    -0.329 N 
ATOM     22 HD21 ASN A   5      20.560  13.856  31.214  0.00  0.00    +0.145 HD
ATOM     23 HD22 ASN A   5      21.838  12.799  30.510  0.00  0.00    +0.145 HD
ENDBRANCH  18  19
ENDBRANCH  15  18
ENDBRANCH  13  15
ENDBRANCH  10  11
BRANCH  10  24
ATOM     24  CB  ILE A   4      25.215  12.367  36.911  0.00  0.00    +0.027 C 
ATOM     25  CG2 ILE A   4      26.322  11.646  36.078  0.00  0.00    +0.002 C 
BRANCH  24  26
ATOM     26  CG1 ILE A   4      25.759  13.732  37.500  0.00  0.00    +0.002 C 
ATOM     27  CD1 ILE A   4      26.897  13.549  38.530  0.00  0.00    +0.000 C 
ENDBRANCH  24  26
ENDBRANCH  10  24
ENDBRANCH   7  10
ENDBRANCH   5   6
ENDBRANCH   3   5
BRANCH   1  28
ATOM     28  CA  ARG A   2      20.759  12.903  40.396  0.00  0.00    +0.149 C 
BRANCH  28  30
ATOM     29  C   ALA A   1      22.935  11.844  40.499  0.00  0.00    +0.238 C 
ATOM     30  N   ARG A   2      21.942  12.475  41.162  0.00  0.00    -0.297 N 
ATOM     31  H   ARG A   2      22.011  12.654  42.184  0.00  0.00    +0.150 HD
ATOM     32  O   ALA A   1      22.943  11.588  39.293  0.00  0.00    -0.274 OA
BRANCH  29  33
ATOM     33  CA  ALA A   1      24.157  11.499  41.396  0.00  0.00    +0.145 C 
ATOM     34  CB  ALA A   1      24.943  12.786  41.688  0.00  0.00    +0.028 C 
BRANCH  33  35
ATOM     35  N   ALA A   1      25.028  10.524  40.713  0.00  0.00    -0.238 NA
ATOM     36  H   ALA A   1      24.724  10.137  39.797  0.00  0.00    +0.142 HD
ENDBRANCH  33  35
ENDBRANCH  29  33
ENDBRANCH  28  30
BRANCH  28  37
ATOM     37  CB  ARG A   2      19.629  13.495  41.250  0.00  0.00    +0.033 C 
BRANCH  37  38
ATOM     38  CG  ARG A   2      20.050  14.475  42.281  0.00  0.00    +0.045 C 
BRANCH  38  39
ATOM     39  CD  ARG A   2      18.863  15.026  43.031  0.00  0.00    +0.174 C 
BRANCH  39  40
ATOM     40  NE  ARG A   2      18.445  16.316  42.654  0.00  0.00    -0.265 N 
ATOM     41  CZ  ARG A   2      18.742  17.487  43.285  0.00  0.00    +0.342 C 
ATOM     42  NH2 ARG A   2      19.514  17.653  44.327  0.00  0.00    -0.292 N 
ATOM     43 HH21 ARG A   2      19.980  16.833  44.765  0.00  0.00    +0.255 HD
ATOM     44 HH22 ARG A   2      19.662  18.605  44.718  0.00  0.00    +0.255 HD
ATOM     45  NH1 ARG A   2      18.022  18.542  42.840  0.00  0.00    -0.292 N 
ATOM     46 HH11 ARG A   2      18.170  19.484  43.254  0.00  0.00    +0.255 HD
ATOM     47 HH12 ARG A   2      17.320  18.411  42.084  0.00  0.00    +0.255 HD
ATOM     48  HE  ARG A   2      17.847  16.383  41.806  0.00  0.00    +0.259 HD
ENDBRANCH  39  40
ENDBRANCH  38  39
ENDBRANCH  37  38
ENDBRANCH  28  37
ENDBRANCH   1  28
TORSDOF 18
REMARK  Name = ../refined-set-2016/3pcf/3pcf_pocket.pdb
REMARK  137 active torsions:
REMARK  status: ('A' for Active; 'I' for Inactive)
REMARK    1  A    between atoms: _1  and  _3
REMARK    2  A    between atoms: _3  and  _4
REMARK    3  A    between atoms: _3  and  _6
REMARK    4  A    between atoms: _6  and  _7
REMARK    5  A    between atoms: _7  and  _8
REMARK    6  A    between atoms: _13  and  _15
REMARK    7  A    between atoms: _15  and  _16
REMARK    8  A    between atoms: _15  and  _18
REMARK    9  A    between atoms: _18  and  _19
REMARK   10  A    between atoms: _22  and  _24
REMARK   11  A    between atoms: _24  and  _25
REMARK   12  A    between atoms: _28  and  _30
REMARK   13  A    between atoms: _30  and  _31
REMARK   14  A    between atoms: _34  and  _35
REMARK   15  A    between atoms: _40  and  _42
REMARK   16  A    between atoms: _42  and  _43
REMARK   17  A    between atoms: _42  and  _45
REMARK   18  A    between atoms: _45  and  _46
REMARK   19  A    between atoms: _51  and  _52
REMARK   20  A    between atoms: _54  and  _56
REMARK   21  A    between atoms: _56  and  _57
REMARK   22  A    between atoms: _56  and  _59
REMARK   23  A    between atoms: _62  and  _64
REMARK   24  A    between atoms: _64  and  _65
REMARK   25  A    between atoms: _64  and  _67
REMARK   26  A    between atoms: _67  and  _68
REMARK   27  A    between atoms: _71  and  _73
REMARK   28  A    between atoms: _73  and  _74
REMARK   29  A    between atoms: _77  and  _79
REMARK   30  A    between atoms: _79  and  _80
REMARK   31  A    between atoms: _79  and  _82
REMARK   32  A    between atoms: _82  and  _83
REMARK   33  A    between atoms: _83  and  _84
REMARK   34  A    between atoms: _84  and  _85
REMARK   35  A    between atoms: _94  and  _96
REMARK   36  A    between atoms: _96  and  _97
REMARK   37  A    between atoms: _99  and  _101
REMARK   38  A    between atoms: _101  and  _102
REMARK   39  A    between atoms: _101  and  _104
REMARK   40  A    between atoms: _104  and  _105
REMARK   41  A    between atoms: _108  and  _110
REMARK   42  A    between atoms: _110  and  _111
REMARK   43  A    between atoms: _110  and  _113
REMARK   44  A    between atoms: _113  and  _114
REMARK   45  A    between atoms: _119  and  _121
REMARK   46  A    between atoms: _121  and  _122
REMARK   47  A    between atoms: _121  and  _124
REMARK   48  A    between atoms: _124  and  _125
REMARK   49  A    between atoms: _130  and  _131
REMARK   50  A    between atoms: _133  and  _135
REMARK   51  A    between atoms: _135  and  _136
REMARK   52  A    between atoms: _135  and  _138
REMARK   53  A    between atoms: _138  and  _139
REMARK   54  A    between atoms: _139  and  _140
REMARK   55  A    between atoms: _140  and  _141
REMARK   56  A    between atoms: _141  and  _142
REMARK   57  A    between atoms: _146  and  _148
REMARK   58  A    between atoms: _148  and  _149
REMARK   59  A    between atoms: _148  and  _151
REMARK   60  A    between atoms: _151  and  _152
REMARK   61  A    between atoms: _155  and  _157
REMARK   62  A    between atoms: _157  and  _158
REMARK   63  A    between atoms: _157  and  _160
REMARK   64  A    between atoms: _160  and  _161
REMARK   65  A    between atoms: _163  and  _165
REMARK   66  A    between atoms: _165  and  _166
REMARK   67  A    between atoms: _165  and  _168
REMARK   68  A    between atoms: _168  and  _169
REMARK   69  A    between atoms: _169  and  _170
REMARK   70  A    between atoms: _170  and  _171
REMARK   71  A    between atoms: _180  and  _182
REMARK   72  A    between atoms: _182  and  _183
REMARK   73  A    between atoms: _182  and  _185
REMARK   74  A    between atoms: _185  and  _186
REMARK   75  A    between atoms: _196  and  _198
REMARK   76  A    between atoms: _198  and  _199
REMARK   77  A    between atoms: _202  and  _204
REMARK   78  A    between atoms: _204  and  _205
REMARK   79  A    between atoms: _204  and  _207
REMARK   80  A    between atoms: _207  and  _208
REMARK   81  A    between atoms: _213  and  _214
REMARK   82  A    between atoms: _216  and  _218
REMARK   83  A    between atoms: _218  and  _219
REMARK   84  A    between atoms: _218  and  _221
REMARK   85  A    between atoms: _221  and  _222
REMARK   86  A    between atoms: _227  and  _228
REMARK   87  A    between atoms: _231  and  _232
REMARK   88  A    between atoms: _237  and  _239
REMARK   89  A    between atoms: _239  and  _240
REMARK   90  A    between atoms: _239  and  _242
REMARK   91  A    between atoms: _242  and  _243
REMARK   92  A    between atoms: _253  and  _255
REMARK   93  A    between atoms: _255  and  _256
REMARK   94  A    between atoms: _255  and  _258
REMARK   95  A    between atoms: _258  and  _259
REMARK   96  A    between atoms: _259  and  _260
REMARK   97  A    between atoms: _260  and  _261
REMARK   98  A    between atoms: _270  and  _272
REMARK   99  A    between atoms: _272  and  _273
REMARK  100  A    between atoms: _272  and  _275
REMARK  101  A    between atoms: _275  and  _276
REMARK  102  A    between atoms: _281  and  _283
REMARK  103  A    between atoms: _283  and  _284
REMARK  104  A    between atoms: _283  and  _286
REMARK  105  A    between atoms: _286  and  _287
REMARK  106  A    between atoms: _287  and  _288
REMARK  107  A    between atoms: _288  and  _289
REMARK  108  A    between atoms: _299  and  _300
REMARK  109  A    between atoms: _305  and  _307
REMARK  110  A    between atoms: _318  and  _321
REMARK  111  A    between atoms: _321  and  _322
REMARK  112  A    between atoms: _327  and  _328
REMARK  113  A    between atoms: _336  and  _338
REMARK  114  A    between atoms: _338  and  _339
REMARK  115  A    between atoms: _338  and  _341
REMARK  116  A    between atoms: _341  and  _342
REMARK  117  A    between atoms: _345  and  _347
REMARK  118  A    between atoms: _347  and  _348
REMARK  119  A    between atoms: _347  and  _350
REMARK  120  A    between atoms: _351  and  _352
REMARK  121  A    between atoms: _357  and  _359
REMARK  122  A    between atoms: _359  and  _360
REMARK  123  A    between atoms: _359  and  _362
REMARK  124  A    between atoms: _362  and  _363
REMARK  125  A    between atoms: _368  and  _369
REMARK  126  A    between atoms: _371  and  _373
REMARK  127  A    between atoms: _373  and  _374
REMARK  128  A    between atoms: _373  and  _376
REMARK  129  A    between atoms: _378  and  _380
REMARK  130  A    between atoms: _380  and  _381
REMARK  131  A    between atoms: _380  and  _383
REMARK  132  A    between atoms: _383  and  _384
REMARK  133  A    between atoms: _387  and  _389
REMARK  134  A    between atoms: _389  and  _390
REMARK  135  A    between atoms: _389  and  _392
REMARK  136  A    between atoms: _392  and  _393
REMARK  137  A    between atoms: _393  and  _394
REMARK                            x       y       z     vdW  Elec       q    Type
REMARK                         _______ _______ _______ _____ _____    ______ ____
ROOT
ATOM      1  CA  LYS A   2      16.459  20.188  34.946  0.00  0.00    +0.149 C 
ENDROOT
BRANCH   1   3
ATOM      2  C   TYR A   1      16.534  18.129  33.682  0.00  0.00    +0.239 C 
ATOM      3  N   LYS A   2      15.855  19.036  34.383  0.00  0.00    -0.297 N 
ATOM      4  H   LYS A   2      14.835  18.892  34.524  0.00  0.00    +0.150 HD
ATOM      5  O   TYR A   1      17.759  18.130  33.408  0.00  0.00    -0.274 OA
BRANCH   2   6
ATOM      6  CA  TYR A   1      15.606  17.044  33.085  0.00  0.00    +0.149 C 
BRANCH   6   7
ATOM      7  N   TYR A   1      15.247  17.688  31.806  0.00  0.00    -0.238 NA
ATOM      8  H   TYR A   1      15.935  17.641  31.028  0.00  0.00    +0.142 HD
ENDBRANCH   6   7
BRANCH   6   9
ATOM      9  CB  TYR A   1      16.420  15.736  32.880  0.00  0.00    +0.053 C 
BRANCH   9  10
ATOM     10  CG  TYR A   1      16.822  15.144  34.209  0.00  0.00    -0.020 A 
ATOM     11  CD2 TYR A   1      16.157  15.473  35.394  0.00  0.00    -0.001 A 
ATOM     12  CE2 TYR A   1      16.476  14.889  36.614  0.00  0.00    +0.036 A 
ATOM     13  CZ  TYR A   1      17.528  13.995  36.678  0.00  0.00    +0.134 A 
ATOM     14  CE1 TYR A   1      18.218  13.652  35.524  0.00  0.00    +0.036 A 
ATOM     15  CD1 TYR A   1      17.883  14.266  34.318  0.00  0.00    -0.001 A 
BRANCH  13  16
ATOM     16  OH  TYR A   1      17.950  13.418  37.851  0.00  0.00    -0.506 OA
ATOM     17  HH  TYR A   1      17.384  13.738  38.597  0.00  0.00    +0.292 HD
ENDBRANCH  13  16
ENDBRANCH   9  10
ENDBRANCH   6   9
ENDBRANCH   2   6
ENDBRANCH   1   3
BRANCH   1  18
ATOM     18  C   LYS A   2      17.787  20.026  35.657  0.00  0.00    +0.241 C 
ATOM     19  N   THR A   3      17.939  19.049  36.508  0.00  0.00    -0.295 N 
ATOM     20  H   THR A   3      17.164  18.368  36.643  0.00  0.00    +0.150 HD
ATOM     21  O   LYS A   2      18.621  20.936  35.436  0.00  0.00    -0.273 OA
BRANCH  19  22
ATOM     22  CA  THR A   3      19.182  18.887  37.282  0.00  0.00    +0.176 C 
BRANCH  22  23
ATOM     23  C   THR A   3      20.396  18.679  36.395  0.00  0.00    +0.243 C 
ATOM     24  O   THR A   3      21.468  19.071  36.814  0.00  0.00    -0.273 OA
ATOM     25  N   SER A   4      20.221  17.984  35.280  0.00  0.00    -0.296 N 
ATOM     26  H   SER A   4      19.270  17.619  35.070  0.00  0.00    +0.150 HD
BRANCH  25  27
ATOM     27  CA  SER A   4      21.284  17.709  34.343  0.00  0.00    +0.166 C 
BRANCH  27  28
ATOM     28  CB  SER A   4      21.998  18.963  33.791  0.00  0.00    +0.229 C 
ATOM     29  OG  SER A   4      23.178  18.878  33.352  0.00  0.00    -0.286 OA
ENDBRANCH  27  28
BRANCH  27  30
ATOM     30  C   SER A   4      20.801  16.835  33.173  0.00  0.00    +0.165 C 
BRANCH  30  31
ATOM     31  O   SER A   4      20.246  17.660  32.176  0.00  0.00    -0.380 OA
ATOM     32  H   SER A   4      19.481  18.163  32.553  0.00  0.00    +0.211 HD
ENDBRANCH  30  31
ENDBRANCH  27  30
ENDBRANCH  25  27
ENDBRANCH  22  23
BRANCH  22  33
ATOM     33  CB  THR A   3      19.119  17.776  38.385  0.00  0.00    +0.137 C 
ATOM     34  CG2 THR A   3      20.270  17.911  39.427  0.00  0.00    +0.034 C 
BRANCH  33  35
ATOM     35  OG1 THR A   3      17.908  18.050  39.109  0.00  0.00    -0.382 OA
ATOM     36  HG1 THR A   3      17.798  17.382  39.831  0.00  0.00    +0.210 HD
ENDBRANCH  33  35
ENDBRANCH  22  33
ENDBRANCH  19  22
ENDBRANCH   1  18
BRANCH   1  37
ATOM     37  CB  LYS A   2      15.503  21.117  35.748  0.00  0.00    +0.029 C 
BRANCH  37  38
ATOM     38  CG  LYS A   2      14.305  21.519  34.855  0.00  0.00    +0.000 C 
BRANCH  38  39
ATOM     39  CD  LYS A   2      13.248  22.196  35.737  0.00  0.00    -0.024 C 
BRANCH  39  40
ATOM     40  CE  LYS A   2      12.134  22.704  34.810  0.00  0.00    -0.086 C 
BRANCH  40  41
ATOM     41  NZ  LYS A   2      11.214  23.500  35.644  0.00  0.00    +0.380 N 
ATOM     42  HZ1 LYS A   2      10.823  22.899  36.397  0.00  0.00    -0.089 HD
ATOM     43  HZ2 LYS A   2      11.733  24.295  36.068  0.00  0.00    -0.089 HD
ATOM     44  HZ3 LYS A   2      10.440  23.865  35.053  0.00  0.00    -0.089 HD
ENDBRANCH  40  41
ENDBRANCH  39  40
ENDBRANCH  38  39
ENDBRANCH  37  38
ENDBRANCH   1  37
TORSDOF 20
REMARK  Name = ../refined-set-2016/3pcf/3pcf_pocket.pdb
REMARK  137 active torsions:
REMARK  status: ('A' for Active; 'I' for Inactive)
REMARK    1  A    between atoms: _1  and  _3
REMARK    2  A    between atoms: _3  and  _4
REMARK    3  A    between atoms: _3  and  _6
REMARK    4  A    between atoms: _6  and  _7
REMARK    5  A    between atoms: _7  and  _8
REMARK    6  A    between atoms: _13  and  _15
REMARK    7  A    between atoms: _15  and  _16
REMARK    8  A    between atoms: _15  and  _18
REMARK    9  A    between atoms: _18  and  _19
REMARK   10  A    between atoms: _22  and  _24
REMARK   11  A    between atoms: _24  and  _25
REMARK   12  A    between atoms: _28  and  _30
REMARK   13  A    between atoms: _30  and  _31
REMARK   14  A    between atoms: _34  and  _35
REMARK   15  A    between atoms: _40  and  _42
REMARK   16  A    between atoms: _42  and  _43
REMARK   17  A    between atoms: _42  and  _45
REMARK   18  A    between atoms: _45  and  _46
REMARK   19  A    between atoms: _51  and  _52
REMARK   20  A    between atoms: _54  and  _56
REMARK   21  A    between atoms: _56  and  _57
REMARK   22  A    between atoms: _56  and  _59
REMARK   23  A    between atoms: _62  and  _64
REMARK   24  A    between atoms: _64  and  _65
REMARK   25  A    between atoms: _64  and  _67
REMARK   26  A    between atoms: _67  and  _68
REMARK   27  A    between atoms: _71  and  _73
REMARK   28  A    between atoms: _73  and  _74
REMARK   29  A    between atoms: _77  and  _79
REMARK   30  A    between atoms: _79  and  _80
REMARK   31  A    between atoms: _79  and  _82
REMARK   32  A    between atoms: _82  and  _83
REMARK   33  A    between atoms: _83  and  _84
REMARK   34  A    between atoms: _84  and  _85
REMARK   35  A    between atoms: _94  and  _96
REMARK   36  A    between atoms: _96  and  _97
REMARK   37  A    between atoms: _99  and  _101
REMARK   38  A    between atoms: _101  and  _102
REMARK   39  A    between atoms: _101  and  _104
REMARK   40  A    between atoms: _104  and  _105
REMARK   41  A    between atoms: _108  and  _110
REMARK   42  A    between atoms: _110  and  _111
REMARK   43  A    between atoms: _110  and  _113
REMARK   44  A    between atoms: _113  and  _114
REMARK   45  A    between atoms: _119  and  _121
REMARK   46  A    between atoms: _121  and  _122
REMARK   47  A    between atoms: _121  and  _124
REMARK   48  A    between atoms: _124  and  _125
REMARK   49  A    between atoms: _130  and  _131
REMARK   50  A    between atoms: _133  and  _135
REMARK   51  A    between atoms: _135  and  _136
REMARK   52  A    between atoms: _135  and  _138
REMARK   53  A    between atoms: _138  and  _139
REMARK   54  A    between atoms: _139  and  _140
REMARK   55  A    between atoms: _140  and  _141
REMARK   56  A    between atoms: _141  and  _142
REMARK   57  A    between atoms: _146  and  _148
REMARK   58  A    between atoms: _148  and  _149
REMARK   59  A    between atoms: _148  and  _151
REMARK   60  A    between atoms: _151  and  _152
REMARK   61  A    between atoms: _155  and  _157
REMARK   62  A    between atoms: _157  and  _158
REMARK   63  A    between atoms: _157  and  _160
REMARK   64  A    between atoms: _160  and  _161
REMARK   65  A    between atoms: _163  and  _165
REMARK   66  A    between atoms: _165  and  _166
REMARK   67  A    between atoms: _165  and  _168
REMARK   68  A    between atoms: _168  and  _169
REMARK   69  A    between atoms: _169  and  _170
REMARK   70  A    between atoms: _170  and  _171
REMARK   71  A    between atoms: _180  and  _182
REMARK   72  A    between atoms: _182  and  _183
REMARK   73  A    between atoms: _182  and  _185
REMARK   74  A    between atoms: _185  and  _186
REMARK   75  A    between atoms: _196  and  _198
REMARK   76  A    between atoms: _198  and  _199
REMARK   77  A    between atoms: _202  and  _204
REMARK   78  A    between atoms: _204  and  _205
REMARK   79  A    between atoms: _204  and  _207
REMARK   80  A    between atoms: _207  and  _208
REMARK   81  A    between atoms: _213  and  _214
REMARK   82  A    between atoms: _216  and  _218
REMARK   83  A    between atoms: _218  and  _219
REMARK   84  A    between atoms: _218  and  _221
REMARK   85  A    between atoms: _221  and  _222
REMARK   86  A    between atoms: _227  and  _228
REMARK   87  A    between atoms: _231  and  _232
REMARK   88  A    between atoms: _237  and  _239
REMARK   89  A    between atoms: _239  and  _240
REMARK   90  A    between atoms: _239  and  _242
REMARK   91  A    between atoms: _242  and  _243
REMARK   92  A    between atoms: _253  and  _255
REMARK   93  A    between atoms: _255  and  _256
REMARK   94  A    between atoms: _255  and  _258
REMARK   95  A    between atoms: _258  and  _259
REMARK   96  A    between atoms: _259  and  _260
REMARK   97  A    between atoms: _260  and  _261
REMARK   98  A    between atoms: _270  and  _272
REMARK   99  A    between atoms: _272  and  _273
REMARK  100  A    between atoms: _272  and  _275
REMARK  101  A    between atoms: _275  and  _276
REMARK  102  A    between atoms: _281  and  _283
REMARK  103  A    between atoms: _283  and  _284
REMARK  104  A    between atoms: _283  and  _286
REMARK  105  A    between atoms: _286  and  _287
REMARK  106  A    between atoms: _287  and  _288
REMARK  107  A    between atoms: _288  and  _289
REMARK  108  A    between atoms: _299  and  _300
REMARK  109  A    between atoms: _305  and  _307
REMARK  110  A    between atoms: _318  and  _321
REMARK  111  A    between atoms: _321  and  _322
REMARK  112  A    between atoms: _327  and  _328
REMARK  113  A    between atoms: _336  and  _338
REMARK  114  A    between atoms: _338  and  _339
REMARK  115  A    between atoms: _338  and  _341
REMARK  116  A    between atoms: _341  and  _342
REMARK  117  A    between atoms: _345  and  _347
REMARK  118  A    between atoms: _347  and  _348
REMARK  119  A    between atoms: _347  and  _350
REMARK  120  A    between atoms: _351  and  _352
REMARK  121  A    between atoms: _357  and  _359
REMARK  122  A    between atoms: _359  and  _360
REMARK  123  A    between atoms: _359  and  _362
REMARK  124  A    between atoms: _362  and  _363
REMARK  125  A    between atoms: _368  and  _369
REMARK  126  A    between atoms: _371  and  _373
REMARK  127  A    between atoms: _373  and  _374
REMARK  128  A    between atoms: _373  and  _376
REMARK  129  A    between atoms: _378  and  _380
REMARK  130  A    between atoms: _380  and  _381
REMARK  131  A    between atoms: _380  and  _383
REMARK  132  A    between atoms: _383  and  _384
REMARK  133  A    between atoms: _387  and  _389
REMARK  134  A    between atoms: _389  and  _390
REMARK  135  A    between atoms: _389  and  _392
REMARK  136  A    between atoms: _392  and  _393
REMARK  137  A    between atoms: _393  and  _394
REMARK                            x       y       z     vdW  Elec       q    Type
REMARK                         _______ _______ _______ _____ _____    ______ ____
ROOT
ATOM      1  NE  ARG A   1      23.407  18.272  40.977  0.00  0.00    -0.265 N 
ATOM      2  CZ  ARG A   1      23.186  17.738  42.165  0.00  0.00    +0.342 C 
ATOM      3  NH2 ARG A   1      23.077  18.566  43.208  0.00  0.00    -0.292 N 
ATOM      4 HH21 ARG A   1      22.903  18.184  44.159  0.00  0.00    +0.255 HD
ATOM      5 HH22 ARG A   1      23.166  19.593  43.068  0.00  0.00    +0.255 HD
ATOM      6  NH1 ARG A   1      23.118  16.406  42.331  0.00  0.00    -0.292 N 
ATOM      7 HH11 ARG A   1      22.943  16.008  43.276  0.00  0.00    +0.255 HD
ATOM      8 HH12 ARG A   1      23.240  15.773  41.515  0.00  0.00    +0.255 HD
ATOM      9  HE  ARG A   1      23.436  19.312  40.971  0.00  0.00    +0.259 HD
ENDROOT
BRANCH   1  10
ATOM     10  CD  ARG A   1      23.609  17.679  39.725  0.00  0.00    +0.174 C 
BRANCH  10  11
ATOM     11  CG  ARG A   1      24.429  18.553  38.803  0.00  0.00    +0.045 C 
BRANCH  11  12
ATOM     12  CB  ARG A   1      24.825  17.788  37.566  0.00  0.00    +0.029 C 
BRANCH  12  13
ATOM     13  CA  ARG A   1      25.485  18.639  36.500  0.00  0.00    +0.133 C 
BRANCH  13  14
ATOM     14  N   ARG A   1      24.689  19.809  36.127  0.00  0.00    -0.239 NA
ATOM     15  H   ARG A   1      23.744  19.694  35.707  0.00  0.00    +0.142 HD
ENDBRANCH  13  14
BRANCH  13  16
ATOM     16  C   ARG A   1      26.038  17.859  35.325  0.00  0.00    +0.224 C 
ATOM     17  O   ARG A   1      26.278  16.645  35.484  0.00  0.00    -0.287 OA
ENDBRANCH  13  16
ENDBRANCH  12  13
ENDBRANCH  11  12
ENDBRANCH  10  11
ENDBRANCH   1  10
TORSDOF 6
REMARK  Name = ../refined-set-2016/3pcf/3pcf_pocket.pdb
REMARK  137 active torsions:
REMARK  status: ('A' for Active; 'I' for Inactive)
REMARK    1  A    between atoms: _1  and  _3
REMARK    2  A    between atoms: _3  and  _4
REMARK    3  A    between atoms: _3  and  _6
REMARK    4  A    between atoms: _6  and  _7
REMARK    5  A    between atoms: _7  and  _8
REMARK    6  A    between atoms: _13  and  _15
REMARK    7  A    between atoms: _15  and  _16
REMARK    8  A    between atoms: _15  and  _18
REMARK    9  A    between atoms: _18  and  _19
REMARK   10  A    between atoms: _22  and  _24
REMARK   11  A    between atoms: _24  and  _25
REMARK   12  A    between atoms: _28  and  _30
REMARK   13  A    between atoms: _30  and  _31
REMARK   14  A    between atoms: _34  and  _35
REMARK   15  A    between atoms: _40  and  _42
REMARK   16  A    between atoms: _42  and  _43
REMARK   17  A    between atoms: _42  and  _45
REMARK   18  A    between atoms: _45  and  _46
REMARK   19  A    between atoms: _51  and  _52
REMARK   20  A    between atoms: _54  and  _56
REMARK   21  A    between atoms: _56  and  _57
REMARK   22  A    between atoms: _56  and  _59
REMARK   23  A    between atoms: _62  and  _64
REMARK   24  A    between atoms: _64  and  _65
REMARK   25  A    between atoms: _64  and  _67
REMARK   26  A    between atoms: _67  and  _68
REMARK   27  A    between atoms: _71  and  _73
REMARK   28  A    between atoms: _73  and  _74
REMARK   29  A    between atoms: _77  and  _79
REMARK   30  A    between atoms: _79  and  _80
REMARK   31  A    between atoms: _79  and  _82
REMARK   32  A    between atoms: _82  and  _83
REMARK   33  A    between atoms: _83  and  _84
REMARK   34  A    between atoms: _84  and  _85
REMARK   35  A    between atoms: _94  and  _96
REMARK   36  A    between atoms: _96  and  _97
REMARK   37  A    between atoms: _99  and  _101
REMARK   38  A    between atoms: _101  and  _102
REMARK   39  A    between atoms: _101  and  _104
REMARK   40  A    between atoms: _104  and  _105
REMARK   41  A    between atoms: _108  and  _110
REMARK   42  A    between atoms: _110  and  _111
REMARK   43  A    between atoms: _110  and  _113
REMARK   44  A    between atoms: _113  and  _114
REMARK   45  A    between atoms: _119  and  _121
REMARK   46  A    between atoms: _121  and  _122
REMARK   47  A    between atoms: _121  and  _124
REMARK   48  A    between atoms: _124  and  _125
REMARK   49  A    between atoms: _130  and  _131
REMARK   50  A    between atoms: _133  and  _135
REMARK   51  A    between atoms: _135  and  _136
REMARK   52  A    between atoms: _135  and  _138
REMARK   53  A    between atoms: _138  and  _139
REMARK   54  A    between atoms: _139  and  _140
REMARK   55  A    between atoms: _140  and  _141
REMARK   56  A    between atoms: _141  and  _142
REMARK   57  A    between atoms: _146  and  _148
REMARK   58  A    between atoms: _148  and  _149
REMARK   59  A    between atoms: _148  and  _151
REMARK   60  A    between atoms: _151  and  _152
REMARK   61  A    between atoms: _155  and  _157
REMARK   62  A    between atoms: _157  and  _158
REMARK   63  A    between atoms: _157  and  _160
REMARK   64  A    between atoms: _160  and  _161
REMARK   65  A    between atoms: _163  and  _165
REMARK   66  A    between atoms: _165  and  _166
REMARK   67  A    between atoms: _165  and  _168
REMARK   68  A    between atoms: _168  and  _169
REMARK   69  A    between atoms: _169  and  _170
REMARK   70  A    between atoms: _170  and  _171
REMARK   71  A    between atoms: _180  and  _182
REMARK   72  A    between atoms: _182  and  _183
REMARK   73  A    between atoms: _182  and  _185
REMARK   74  A    between atoms: _185  and  _186
REMARK   75  A    between atoms: _196  and  _198
REMARK   76  A    between atoms: _198  and  _199
REMARK   77  A    between atoms: _202  and  _204
REMARK   78  A    between atoms: _204  and  _205
REMARK   79  A    between atoms: _204  and  _207
REMARK   80  A    between atoms: _207  and  _208
REMARK   81  A    between atoms: _213  and  _214
REMARK   82  A    between atoms: _216  and  _218
REMARK   83  A    between atoms: _218  and  _219
REMARK   84  A    between atoms: _218  and  _221
REMARK   85  A    between atoms: _221  and  _222
REMARK   86  A    between atoms: _227  and  _228
REMARK   87  A    between atoms: _231  and  _232
REMARK   88  A    between atoms: _237  and  _239
REMARK   89  A    between atoms: _239  and  _240
REMARK   90  A    between atoms: _239  and  _242
REMARK   91  A    between atoms: _242  and  _243
REMARK   92  A    between atoms: _253  and  _255
REMARK   93  A    between atoms: _255  and  _256
REMARK   94  A    between atoms: _255  and  _258
REMARK   95  A    between atoms: _258  and  _259
REMARK   96  A    between atoms: _259  and  _260
REMARK   97  A    between atoms: _260  and  _261
REMARK   98  A    between atoms: _270  and  _272
REMARK   99  A    between atoms: _272  and  _273
REMARK  100  A    between atoms: _272  and  _275
REMARK  101  A    between atoms: _275  and  _276
REMARK  102  A    between atoms: _281  and  _283
REMARK  103  A    between atoms: _283  and  _284
REMARK  104  A    between atoms: _283  and  _286
REMARK  105  A    between atoms: _286  and  _287
REMARK  106  A    between atoms: _287  and  _288
REMARK  107  A    between atoms: _288  and  _289
REMARK  108  A    between atoms: _299  and  _300
REMARK  109  A    between atoms: _305  and  _307
REMARK  110  A    between atoms: _318  and  _321
REMARK  111  A    between atoms: _321  and  _322
REMARK  112  A    between atoms: _327  and  _328
REMARK  113  A    between atoms: _336  and  _338
REMARK  114  A    between atoms: _338  and  _339
REMARK  115  A    between atoms: _338  and  _341
REMARK  116  A    between atoms: _341  and  _342
REMARK  117  A    between atoms: _345  and  _347
REMARK  118  A    between atoms: _347  and  _348
REMARK  119  A    between atoms: _347  and  _350
REMARK  120  A    between atoms: _351  and  _352
REMARK  121  A    between atoms: _357  and  _359
REMARK  122  A    between atoms: _359  and  _360
REMARK  123  A    between atoms: _359  and  _362
REMARK  124  A    between atoms: _362  and  _363
REMARK  125  A    between atoms: _368  and  _369
REMARK  126  A    between atoms: _371  and  _373
REMARK  127  A    between atoms: _373  and  _374
REMARK  128  A    between atoms: _373  and  _376
REMARK  129  A    between atoms: _378  and  _380
REMARK  130  A    between atoms: _380  and  _381
REMARK  131  A    between atoms: _380  and  _383
REMARK  132  A    between atoms: _383  and  _384
REMARK  133  A    between atoms: _387  and  _389
REMARK  134  A    between atoms: _389  and  _390
REMARK  135  A    between atoms: _389  and  _392
REMARK  136  A    between atoms: _392  and  _393
REMARK  137  A    between atoms: _393  and  _394
REMARK                            x       y       z     vdW  Elec       q    Type
REMARK                         _______ _______ _______ _____ _____    ______ ____
ROOT
ATOM      1  CG  TRP A   1      17.473   2.296  45.517  0.00  0.00    -0.002 A 
ATOM      2  CD1 TRP A   1      16.947   3.542  45.496  0.00  0.00    +0.068 A 
ATOM      3  NE1 TRP A   1      17.652   4.370  44.659  0.00  0.00    -0.352 N 
ATOM      4  HE1 TRP A   1      17.452   5.376  44.489  0.00  0.00    +0.166 HD
ATOM      5  CE2 TRP A   1      18.656   3.653  44.090  0.00  0.00    +0.056 A 
ATOM      6  CZ2 TRP A   1      19.590   4.066  43.139  0.00  0.00    +0.017 A 
ATOM      7  CH2 TRP A   1      20.460   3.067  42.678  0.00  0.00    +0.001 A 
ATOM      8  CZ3 TRP A   1      20.424   1.794  43.200  0.00  0.00    +0.000 A 
ATOM      9  CE3 TRP A   1      19.494   1.403  44.179  0.00  0.00    +0.001 A 
ATOM     10  CD2 TRP A   1      18.579   2.321  44.565  0.00  0.00    +0.013 A 
ENDROOT
BRANCH   1  11
ATOM     11  CB  TRP A   1      17.013   1.120  46.314  0.00  0.00    +0.053 C 
BRANCH  11  12
ATOM     12  CA  TRP A   1      16.044   0.206  45.572  0.00  0.00    +0.137 C 
BRANCH  12  13
ATOM     13  N   TRP A   1      16.691  -0.686  44.617  0.00  0.00    -0.239 NA
ATOM     14  H   TRP A   1      16.515  -0.512  43.607  0.00  0.00    +0.142 HD
ENDBRANCH  12  13
BRANCH  12  15
ATOM     15  C   TRP A   1      14.867   0.862  44.835  0.00  0.00    +0.224 C 
ATOM     16  O   TRP A   1      14.826   1.034  43.605  0.00  0.00    -0.287 OA
ENDBRANCH  12  15
ENDBRANCH  11  12
ENDBRANCH   1  11
TORSDOF 4
REMARK  Name = ../refined-set-2016/3pcf/3pcf_pocket.pdb
REMARK  137 active torsions:
REMARK  status: ('A' for Active; 'I' for Inactive)
REMARK    1  A    between atoms: _1  and  _3
REMARK    2  A    between atoms: _3  and  _4
REMARK    3  A    between atoms: _3  and  _6
REMARK    4  A    between atoms: _6  and  _7
REMARK    5  A    between atoms: _7  and  _8
REMARK    6  A    between atoms: _13  and  _15
REMARK    7  A    between atoms: _15  and  _16
REMARK    8  A    between atoms: _15  and  _18
REMARK    9  A    between atoms: _18  and  _19
REMARK   10  A    between atoms: _22  and  _24
REMARK   11  A    between atoms: _24  and  _25
REMARK   12  A    between atoms: _28  and  _30
REMARK   13  A    between atoms: _30  and  _31
REMARK   14  A    between atoms: _34  and  _35
REMARK   15  A    between atoms: _40  and  _42
REMARK   16  A    between atoms: _42  and  _43
REMARK   17  A    between atoms: _42  and  _45
REMARK   18  A    between atoms: _45  and  _46
REMARK   19  A    between atoms: _51  and  _52
REMARK   20  A    between atoms: _54  and  _56
REMARK   21  A    between atoms: _56  and  _57
REMARK   22  A    between atoms: _56  and  _59
REMARK   23  A    between atoms: _62  and  _64
REMARK   24  A    between atoms: _64  and  _65
REMARK   25  A    between atoms: _64  and  _67
REMARK   26  A    between atoms: _67  and  _68
REMARK   27  A    between atoms: _71  and  _73
REMARK   28  A    between atoms: _73  and  _74
REMARK   29  A    between atoms: _77  and  _79
REMARK   30  A    between atoms: _79  and  _80
REMARK   31  A    between atoms: _79  and  _82
REMARK   32  A    between atoms: _82  and  _83
REMARK   33  A    between atoms: _83  and  _84
REMARK   34  A    between atoms: _84  and  _85
REMARK   35  A    between atoms: _94  and  _96
REMARK   36  A    between atoms: _96  and  _97
REMARK   37  A    between atoms: _99  and  _101
REMARK   38  A    between atoms: _101  and  _102
REMARK   39  A    between atoms: _101  and  _104
REMARK   40  A    between atoms: _104  and  _105
REMARK   41  A    between atoms: _108  and  _110
REMARK   42  A    between atoms: _110  and  _111
REMARK   43  A    between atoms: _110  and  _113
REMARK   44  A    between atoms: _113  and  _114
REMARK   45  A    between atoms: _119  and  _121
REMARK   46  A    between atoms: _121  and  _122
REMARK   47  A    between atoms: _121  and  _124
REMARK   48  A    between atoms: _124  and  _125
REMARK   49  A    between atoms: _130  and  _131
REMARK   50  A    between atoms: _133  and  _135
REMARK   51  A    between atoms: _135  and  _136
REMARK   52  A    between atoms: _135  and  _138
REMARK   53  A    between atoms: _138  and  _139
REMARK   54  A    between atoms: _139  and  _140
REMARK   55  A    between atoms: _140  and  _141
REMARK   56  A    between atoms: _141  and  _142
REMARK   57  A    between atoms: _146  and  _148
REMARK   58  A    between atoms: _148  and  _149
REMARK   59  A    between atoms: _148  and  _151
REMARK   60  A    between atoms: _151  and  _152
REMARK   61  A    between atoms: _155  and  _157
REMARK   62  A    between atoms: _157  and  _158
REMARK   63  A    between atoms: _157  and  _160
REMARK   64  A    between atoms: _160  and  _161
REMARK   65  A    between atoms: _163  and  _165
REMARK   66  A    between atoms: _165  and  _166
REMARK   67  A    between atoms: _165  and  _168
REMARK   68  A    between atoms: _168  and  _169
REMARK   69  A    between atoms: _169  and  _170
REMARK   70  A    between atoms: _170  and  _171
REMARK   71  A    between atoms: _180  and  _182
REMARK   72  A    between atoms: _182  and  _183
REMARK   73  A    between atoms: _182  and  _185
REMARK   74  A    between atoms: _185  and  _186
REMARK   75  A    between atoms: _196  and  _198
REMARK   76  A    between atoms: _198  and  _199
REMARK   77  A    between atoms: _202  and  _204
REMARK   78  A    between atoms: _204  and  _205
REMARK   79  A    between atoms: _204  and  _207
REMARK   80  A    between atoms: _207  and  _208
REMARK   81  A    between atoms: _213  and  _214
REMARK   82  A    between atoms: _216  and  _218
REMARK   83  A    between atoms: _218  and  _219
REMARK   84  A    between atoms: _218  and  _221
REMARK   85  A    between atoms: _221  and  _222
REMARK   86  A    between atoms: _227  and  _228
REMARK   87  A    between atoms: _231  and  _232
REMARK   88  A    between atoms: _237  and  _239
REMARK   89  A    between atoms: _239  and  _240
REMARK   90  A    between atoms: _239  and  _242
REMARK   91  A    between atoms: _242  and  _243
REMARK   92  A    between atoms: _253  and  _255
REMARK   93  A    between atoms: _255  and  _256
REMARK   94  A    between atoms: _255  and  _258
REMARK   95  A    between atoms: _258  and  _259
REMARK   96  A    between atoms: _259  and  _260
REMARK   97  A    between atoms: _260  and  _261
REMARK   98  A    between atoms: _270  and  _272
REMARK   99  A    between atoms: _272  and  _273
REMARK  100  A    between atoms: _272  and  _275
REMARK  101  A    between atoms: _275  and  _276
REMARK  102  A    between atoms: _281  and  _283
REMARK  103  A    between atoms: _283  and  _284
REMARK  104  A    between atoms: _283  and  _286
REMARK  105  A    between atoms: _286  and  _287
REMARK  106  A    between atoms: _287  and  _288
REMARK  107  A    between atoms: _288  and  _289
REMARK  108  A    between atoms: _299  and  _300
REMARK  109  A    between atoms: _305  and  _307
REMARK  110  A    between atoms: _318  and  _321
REMARK  111  A    between atoms: _321  and  _322
REMARK  112  A    between atoms: _327  and  _328
REMARK  113  A    between atoms: _336  and  _338
REMARK  114  A    between atoms: _338  and  _339
REMARK  115  A    between atoms: _338  and  _341
REMARK  116  A    between atoms: _341  and  _342
REMARK  117  A    between atoms: _345  and  _347
REMARK  118  A    between atoms: _347  and  _348
REMARK  119  A    between atoms: _347  and  _350
REMARK  120  A    between atoms: _351  and  _352
REMARK  121  A    between atoms: _357  and  _359
REMARK  122  A    between atoms: _359  and  _360
REMARK  123  A    between atoms: _359  and  _362
REMARK  124  A    between atoms: _362  and  _363
REMARK  125  A    between atoms: _368  and  _369
REMARK  126  A    between atoms: _371  and  _373
REMARK  127  A    between atoms: _373  and  _374
REMARK  128  A    between atoms: _373  and  _376
REMARK  129  A    between atoms: _378  and  _380
REMARK  130  A    between atoms: _380  and  _381
REMARK  131  A    between atoms: _380  and  _383
REMARK  132  A    between atoms: _383  and  _384
REMARK  133  A    between atoms: _387  and  _389
REMARK  134  A    between atoms: _389  and  _390
REMARK  135  A    between atoms: _389  and  _392
REMARK  136  A    between atoms: _392  and  _393
REMARK  137  A    between atoms: _393  and  _394
REMARK                            x       y       z     vdW  Elec       q    Type
REMARK                         _______ _______ _______ _____ _____    ______ ____
ROOT
ATOM      1  CA  ALA A   1       9.704   3.456  46.843  0.00  0.00    +0.133 C 
ATOM      2  CB  ALA A   1       8.929   4.588  46.091  0.00  0.00    +0.027 C 
ENDROOT
BRANCH   1   3
ATOM      3  N   ALA A   1      10.689   2.875  45.916  0.00  0.00    -0.239 NA
ATOM      4  H   ALA A   1      10.510   2.963  44.895  0.00  0.00    +0.142 HD
ENDBRANCH   1   3
BRANCH   1   5
ATOM      5  C   ALA A   1       8.687   2.340  47.153  0.00  0.00    +0.224 C 
ATOM      6  O   ALA A   1       8.699   1.185  46.645  0.00  0.00    -0.287 OA
ENDBRANCH   1   5
TORSDOF 2
REMARK  Name = ../refined-set-2016/3pcf/3pcf_pocket.pdb
REMARK  137 active torsions:
REMARK  status: ('A' for Active; 'I' for Inactive)
REMARK    1  A    between atoms: _1  and  _3
REMARK    2  A    between atoms: _3  and  _4
REMARK    3  A    between atoms: _3  and  _6
REMARK    4  A    between atoms: _6  and  _7
REMARK    5  A    between atoms: _7  and  _8
REMARK    6  A    between atoms: _13  and  _15
REMARK    7  A    between atoms: _15  and  _16
REMARK    8  A    between atoms: _15  and  _18
REMARK    9  A    between atoms: _18  and  _19
REMARK   10  A    between atoms: _22  and  _24
REMARK   11  A    between atoms: _24  and  _25
REMARK   12  A    between atoms: _28  and  _30
REMARK   13  A    between atoms: _30  and  _31
REMARK   14  A    between atoms: _34  and  _35
REMARK   15  A    between atoms: _40  and  _42
REMARK   16  A    between atoms: _42  and  _43
REMARK   17  A    between atoms: _42  and  _45
REMARK   18  A    between atoms: _45  and  _46
REMARK   19  A    between atoms: _51  and  _52
REMARK   20  A    between atoms: _54  and  _56
REMARK   21  A    between atoms: _56  and  _57
REMARK   22  A    between atoms: _56  and  _59
REMARK   23  A    between atoms: _62  and  _64
REMARK   24  A    between atoms: _64  and  _65
REMARK   25  A    between atoms: _64  and  _67
REMARK   26  A    between atoms: _67  and  _68
REMARK   27  A    between atoms: _71  and  _73
REMARK   28  A    between atoms: _73  and  _74
REMARK   29  A    between atoms: _77  and  _79
REMARK   30  A    between atoms: _79  and  _80
REMARK   31  A    between atoms: _79  and  _82
REMARK   32  A    between atoms: _82  and  _83
REMARK   33  A    between atoms: _83  and  _84
REMARK   34  A    between atoms: _84  and  _85
REMARK   35  A    between atoms: _94  and  _96
REMARK   36  A    between atoms: _96  and  _97
REMARK   37  A    between atoms: _99  and  _101
REMARK   38  A    between atoms: _101  and  _102
REMARK   39  A    between atoms: _101  and  _104
REMARK   40  A    between atoms: _104  and  _105
REMARK   41  A    between atoms: _108  and  _110
REMARK   42  A    between atoms: _110  and  _111
REMARK   43  A    between atoms: _110  and  _113
REMARK   44  A    between atoms: _113  and  _114
REMARK   45  A    between atoms: _119  and  _121
REMARK   46  A    between atoms: _121  and  _122
REMARK   47  A    between atoms: _121  and  _124
REMARK   48  A    between atoms: _124  and  _125
REMARK   49  A    between atoms: _130  and  _131
REMARK   50  A    between atoms: _133  and  _135
REMARK   51  A    between atoms: _135  and  _136
REMARK   52  A    between atoms: _135  and  _138
REMARK   53  A    between atoms: _138  and  _139
REMARK   54  A    between atoms: _139  and  _140
REMARK   55  A    between atoms: _140  and  _141
REMARK   56  A    between atoms: _141  and  _142
REMARK   57  A    between atoms: _146  and  _148
REMARK   58  A    between atoms: _148  and  _149
REMARK   59  A    between atoms: _148  and  _151
REMARK   60  A    between atoms: _151  and  _152
REMARK   61  A    between atoms: _155  and  _157
REMARK   62  A    between atoms: _157  and  _158
REMARK   63  A    between atoms: _157  and  _160
REMARK   64  A    between atoms: _160  and  _161
REMARK   65  A    between atoms: _163  and  _165
REMARK   66  A    between atoms: _165  and  _166
REMARK   67  A    between atoms: _165  and  _168
REMARK   68  A    between atoms: _168  and  _169
REMARK   69  A    between atoms: _169  and  _170
REMARK   70  A    between atoms: _170  and  _171
REMARK   71  A    between atoms: _180  and  _182
REMARK   72  A    between atoms: _182  and  _183
REMARK   73  A    between atoms: _182  and  _185
REMARK   74  A    between atoms: _185  and  _186
REMARK   75  A    between atoms: _196  and  _198
REMARK   76  A    between atoms: _198  and  _199
REMARK   77  A    between atoms: _202  and  _204
REMARK   78  A    between atoms: _204  and  _205
REMARK   79  A    between atoms: _204  and  _207
REMARK   80  A    between atoms: _207  and  _208
REMARK   81  A    between atoms: _213  and  _214
REMARK   82  A    between atoms: _216  and  _218
REMARK   83  A    between atoms: _218  and  _219
REMARK   84  A    between atoms: _218  and  _221
REMARK   85  A    between atoms: _221  and  _222
REMARK   86  A    between atoms: _227  and  _228
REMARK   87  A    between atoms: _231  and  _232
REMARK   88  A    between atoms: _237  and  _239
REMARK   89  A    between atoms: _239  and  _240
REMARK   90  A    between atoms: _239  and  _242
REMARK   91  A    between atoms: _242  and  _243
REMARK   92  A    between atoms: _253  and  _255
REMARK   93  A    between atoms: _255  and  _256
REMARK   94  A    between atoms: _255  and  _258
REMARK   95  A    between atoms: _258  and  _259
REMARK   96  A    between atoms: _259  and  _260
REMARK   97  A    between atoms: _260  and  _261
REMARK   98  A    between atoms: _270  and  _272
REMARK   99  A    between atoms: _272  and  _273
REMARK  100  A    between atoms: _272  and  _275
REMARK  101  A    between atoms: _275  and  _276
REMARK  102  A    between atoms: _281  and  _283
REMARK  103  A    between atoms: _283  and  _284
REMARK  104  A    between atoms: _283  and  _286
REMARK  105  A    between atoms: _286  and  _287
REMARK  106  A    between atoms: _287  and  _288
REMARK  107  A    between atoms: _288  and  _289
REMARK  108  A    between atoms: _299  and  _300
REMARK  109  A    between atoms: _305  and  _307
REMARK  110  A    between atoms: _318  and  _321
REMARK  111  A    between atoms: _321  and  _322
REMARK  112  A    between atoms: _327  and  _328
REMARK  113  A    between atoms: _336  and  _338
REMARK  114  A    between atoms: _338  and  _339
REMARK  115  A    between atoms: _338  and  _341
REMARK  116  A    between atoms: _341  and  _342
REMARK  117  A    between atoms: _345  and  _347
REMARK  118  A    between atoms: _347  and  _348
REMARK  119  A    between atoms: _347  and  _350
REMARK  120  A    between atoms: _351  and  _352
REMARK  121  A    between atoms: _357  and  _359
REMARK  122  A    between atoms: _359  and  _360
REMARK  123  A    between atoms: _359  and  _362
REMARK  124  A    between atoms: _362  and  _363
REMARK  125  A    between atoms: _368  and  _369
REMARK  126  A    between atoms: _371  and  _373
REMARK  127  A    between atoms: _373  and  _374
REMARK  128  A    between atoms: _373  and  _376
REMARK  129  A    between atoms: _378  and  _380
REMARK  130  A    between atoms: _380  and  _381
REMARK  131  A    between atoms: _380  and  _383
REMARK  132  A    between atoms: _383  and  _384
REMARK  133  A    between atoms: _387  and  _389
REMARK  134  A    between atoms: _389  and  _390
REMARK  135  A    between atoms: _389  and  _392
REMARK  136  A    between atoms: _392  and  _393
REMARK  137  A    between atoms: _393  and  _394
REMARK                            x       y       z     vdW  Elec       q    Type
REMARK                         _______ _______ _______ _____ _____    ______ ____
ROOT
ATOM      1  CG  TYR A   1      12.076   6.807  47.518  0.00  0.00    -0.020 A 
ATOM      2  CD2 TYR A   1      12.767   5.676  47.064  0.00  0.00    -0.001 A 
ATOM      3  CE2 TYR A   1      12.915   5.407  45.693  0.00  0.00    +0.036 A 
ATOM      4  CZ  TYR A   1      12.385   6.311  44.767  0.00  0.00    +0.134 A 
ATOM      5  CE1 TYR A   1      11.669   7.413  45.182  0.00  0.00    +0.036 A 
ATOM      6  CD1 TYR A   1      11.535   7.668  46.544  0.00  0.00    -0.001 A 
ENDROOT
BRANCH   4   7
ATOM      7  OH  TYR A   1      12.530   6.138  43.432  0.00  0.00    -0.506 OA
ATOM      8  HH  TYR A   1      12.999   6.921  43.048  0.00  0.00    +0.292 HD
ENDBRANCH   4   7
BRANCH   1   9
ATOM      9  CB  TYR A   1      11.918   7.143  48.953  0.00  0.00    +0.051 C 
BRANCH   9  10
ATOM     10  CA  TYR A   1      10.845   6.492  49.791  0.00  0.00    +0.137 C 
BRANCH  10  11
ATOM     11  N   TYR A   1       9.503   7.054  49.592  0.00  0.00    -0.239 NA
ATOM     12  H   TYR A   1       9.388   8.088  49.592  0.00  0.00    +0.142 HD
ENDBRANCH  10  11
BRANCH  10  13
ATOM     13  C   TYR A   1      11.235   6.611  51.267  0.00  0.00    +0.224 C 
ATOM     14  O   TYR A   1      10.946   7.650  51.878  0.00  0.00    -0.287 OA
ENDBRANCH  10  13
ENDBRANCH   9  10
ENDBRANCH   1   9
TORSDOF 5
REMARK  Name = ../refined-set-2016/3pcf/3pcf_pocket.pdb
REMARK  137 active torsions:
REMARK  status: ('A' for Active; 'I' for Inactive)
REMARK    1  A    between atoms: _1  and  _3
REMARK    2  A    between atoms: _3  and  _4
REMARK    3  A    between atoms: _3  and  _6
REMARK    4  A    between atoms: _6  and  _7
REMARK    5  A    between atoms: _7  and  _8
REMARK    6  A    between atoms: _13  and  _15
REMARK    7  A    between atoms: _15  and  _16
REMARK    8  A    between atoms: _15  and  _18
REMARK    9  A    between atoms: _18  and  _19
REMARK   10  A    between atoms: _22  and  _24
REMARK   11  A    between atoms: _24  and  _25
REMARK   12  A    between atoms: _28  and  _30
REMARK   13  A    between atoms: _30  and  _31
REMARK   14  A    between atoms: _34  and  _35
REMARK   15  A    between atoms: _40  and  _42
REMARK   16  A    between atoms: _42  and  _43
REMARK   17  A    between atoms: _42  and  _45
REMARK   18  A    between atoms: _45  and  _46
REMARK   19  A    between atoms: _51  and  _52
REMARK   20  A    between atoms: _54  and  _56
REMARK   21  A    between atoms: _56  and  _57
REMARK   22  A    between atoms: _56  and  _59
REMARK   23  A    between atoms: _62  and  _64
REMARK   24  A    between atoms: _64  and  _65
REMARK   25  A    between atoms: _64  and  _67
REMARK   26  A    between atoms: _67  and  _68
REMARK   27  A    between atoms: _71  and  _73
REMARK   28  A    between atoms: _73  and  _74
REMARK   29  A    between atoms: _77  and  _79
REMARK   30  A    between atoms: _79  and  _80
REMARK   31  A    between atoms: _79  and  _82
REMARK   32  A    between atoms: _82  and  _83
REMARK   33  A    between atoms: _83  and  _84
REMARK   34  A    between atoms: _84  and  _85
REMARK   35  A    between atoms: _94  and  _96
REMARK   36  A    between atoms: _96  and  _97
REMARK   37  A    between atoms: _99  and  _101
REMARK   38  A    between atoms: _101  and  _102
REMARK   39  A    between atoms: _101  and  _104
REMARK   40  A    between atoms: _104  and  _105
REMARK   41  A    between atoms: _108  and  _110
REMARK   42  A    between atoms: _110  and  _111
REMARK   43  A    between atoms: _110  and  _113
REMARK   44  A    between atoms: _113  and  _114
REMARK   45  A    between atoms: _119  and  _121
REMARK   46  A    between atoms: _121  and  _122
REMARK   47  A    between atoms: _121  and  _124
REMARK   48  A    between atoms: _124  and  _125
REMARK   49  A    between atoms: _130  and  _131
REMARK   50  A    between atoms: _133  and  _135
REMARK   51  A    between atoms: _135  and  _136
REMARK   52  A    between atoms: _135  and  _138
REMARK   53  A    between atoms: _138  and  _139
REMARK   54  A    between atoms: _139  and  _140
REMARK   55  A    between atoms: _140  and  _141
REMARK   56  A    between atoms: _141  and  _142
REMARK   57  A    between atoms: _146  and  _148
REMARK   58  A    between atoms: _148  and  _149
REMARK   59  A    between atoms: _148  and  _151
REMARK   60  A    between atoms: _151  and  _152
REMARK   61  A    between atoms: _155  and  _157
REMARK   62  A    between atoms: _157  and  _158
REMARK   63  A    between atoms: _157  and  _160
REMARK   64  A    between atoms: _160  and  _161
REMARK   65  A    between atoms: _163  and  _165
REMARK   66  A    between atoms: _165  and  _166
REMARK   67  A    between atoms: _165  and  _168
REMARK   68  A    between atoms: _168  and  _169
REMARK   69  A    between atoms: _169  and  _170
REMARK   70  A    between atoms: _170  and  _171
REMARK   71  A    between atoms: _180  and  _182
REMARK   72  A    between atoms: _182  and  _183
REMARK   73  A    between atoms: _182  and  _185
REMARK   74  A    between atoms: _185  and  _186
REMARK   75  A    between atoms: _196  and  _198
REMARK   76  A    between atoms: _198  and  _199
REMARK   77  A    between atoms: _202  and  _204
REMARK   78  A    between atoms: _204  and  _205
REMARK   79  A    between atoms: _204  and  _207
REMARK   80  A    between atoms: _207  and  _208
REMARK   81  A    between atoms: _213  and  _214
REMARK   82  A    between atoms: _216  and  _218
REMARK   83  A    between atoms: _218  and  _219
REMARK   84  A    between atoms: _218  and  _221
REMARK   85  A    between atoms: _221  and  _222
REMARK   86  A    between atoms: _227  and  _228
REMARK   87  A    between atoms: _231  and  _232
REMARK   88  A    between atoms: _237  and  _239
REMARK   89  A    between atoms: _239  and  _240
REMARK   90  A    between atoms: _239  and  _242
REMARK   91  A    between atoms: _242  and  _243
REMARK   92  A    between atoms: _253  and  _255
REMARK   93  A    between atoms: _255  and  _256
REMARK   94  A    between atoms: _255  and  _258
REMARK   95  A    between atoms: _258  and  _259
REMARK   96  A    between atoms: _259  and  _260
REMARK   97  A    between atoms: _260  and  _261
REMARK   98  A    between atoms: _270  and  _272
REMARK   99  A    between atoms: _272  and  _273
REMARK  100  A    between atoms: _272  and  _275
REMARK  101  A    between atoms: _275  and  _276
REMARK  102  A    between atoms: _281  and  _283
REMARK  103  A    between atoms: _283  and  _284
REMARK  104  A    between atoms: _283  and  _286
REMARK  105  A    between atoms: _286  and  _287
REMARK  106  A    between atoms: _287  and  _288
REMARK  107  A    between atoms: _288  and  _289
REMARK  108  A    between atoms: _299  and  _300
REMARK  109  A    between atoms: _305  and  _307
REMARK  110  A    between atoms: _318  and  _321
REMARK  111  A    between atoms: _321  and  _322
REMARK  112  A    between atoms: _327  and  _328
REMARK  113  A    between atoms: _336  and  _338
REMARK  114  A    between atoms: _338  and  _339
REMARK  115  A    between atoms: _338  and  _341
REMARK  116  A    between atoms: _341  and  _342
REMARK  117  A    between atoms: _345  and  _347
REMARK  118  A    between atoms: _347  and  _348
REMARK  119  A    between atoms: _347  and  _350
REMARK  120  A    between atoms: _351  and  _352
REMARK  121  A    between atoms: _357  and  _359
REMARK  122  A    between atoms: _359  and  _360
REMARK  123  A    between atoms: _359  and  _362
REMARK  124  A    between atoms: _362  and  _363
REMARK  125  A    between atoms: _368  and  _369
REMARK  126  A    between atoms: _371  and  _373
REMARK  127  A    between atoms: _373  and  _374
REMARK  128  A    between atoms: _373  and  _376
REMARK  129  A    between atoms: _378  and  _380
REMARK  130  A    between atoms: _380  and  _381
REMARK  131  A    between atoms: _380  and  _383
REMARK  132  A    between atoms: _383  and  _384
REMARK  133  A    between atoms: _387  and  _389
REMARK  134  A    between atoms: _389  and  _390
REMARK  135  A    between atoms: _389  and  _392
REMARK  136  A    between atoms: _392  and  _393
REMARK  137  A    between atoms: _393  and  _394
REMARK                            x       y       z     vdW  Elec       q    Type
REMARK                         _______ _______ _______ _____ _____    ______ ____
ROOT
ATOM      1  CA  TRP A   3       9.062  15.480  41.728  0.00  0.00    +0.153 C 
ENDROOT
BRANCH   1   2
ATOM      2  C   TRP A   3       9.140  16.901  41.194  0.00  0.00    +0.241 C 
ATOM      3  N   ARG A   4       9.971  17.688  41.849  0.00  0.00    -0.297 N 
ATOM      4  H   ARG A   4      10.523  17.296  42.638  0.00  0.00    +0.150 HD
ATOM      5  O   TRP A   3       8.495  17.263  40.190  0.00  0.00    -0.273 OA
BRANCH   3   6
ATOM      6  CA  ARG A   4      10.138  19.113  41.490  0.00  0.00    +0.149 C 
BRANCH   6   7
ATOM      7  C   ARG A   4      11.045  19.246  40.291  0.00  0.00    +0.241 C 
ATOM      8  O   ARG A   4      12.266  19.392  40.443  0.00  0.00    -0.273 OA
ATOM      9  N   ASN A   5      10.536  19.067  39.101  0.00  0.00    -0.298 N 
ATOM     10  H   ASN A   5       9.533  18.791  39.094  0.00  0.00    +0.150 HD
BRANCH   9  11
ATOM     11  CA  ASN A   5      11.138  19.190  37.792  0.00  0.00    +0.146 C 
BRANCH  11  12
ATOM     12  C   ASN A   5      10.258  20.295  37.127  0.00  0.00    +0.227 C 
ATOM     13  O   ASN A   5      10.382  21.470  37.518  0.00  0.00    -0.286 OA
ENDBRANCH  11  12
BRANCH  11  14
ATOM     14  CB  ASN A   5      11.300  17.908  37.023  0.00  0.00    +0.112 C 
BRANCH  14  15
ATOM     15  CG  ASN A   5      12.107  18.116  35.752  0.00  0.00    +0.222 C 
ATOM     16  OD1 ASN A   5      13.279  18.481  35.934  0.00  0.00    -0.275 OA
ATOM     17  ND2 ASN A   5      11.555  17.982  34.554  0.00  0.00    -0.329 N 
ATOM     18 HD21 ASN A   5      10.566  17.672  34.469  0.00  0.00    +0.145 HD
ATOM     19 HD22 ASN A   5      12.111  18.187  33.699  0.00  0.00    +0.145 HD
ENDBRANCH  14  15
ENDBRANCH  11  14
ENDBRANCH   9  11
ENDBRANCH   6   7
BRANCH   6  20
ATOM     20  CB  ARG A   4      10.489  19.989  42.688  0.00  0.00    +0.033 C 
BRANCH  20  21
ATOM     21  CG  ARG A   4       9.501  19.948  43.862  0.00  0.00    +0.045 C 
BRANCH  21  22
ATOM     22  CD  ARG A   4       9.029  21.265  44.416  0.00  0.00    +0.174 C 
BRANCH  22  23
ATOM     23  NE  ARG A   4       7.737  21.718  43.883  0.00  0.00    -0.265 N 
ATOM     24  CZ  ARG A   4       6.662  22.157  44.577  0.00  0.00    +0.342 C 
ATOM     25  NH2 ARG A   4       6.646  22.285  45.912  0.00  0.00    -0.292 N 
ATOM     26 HH21 ARG A   4       7.490  22.041  46.468  0.00  0.00    +0.255 HD
ATOM     27 HH22 ARG A   4       5.789  22.628  46.391  0.00  0.00    +0.255 HD
ATOM     28  NH1 ARG A   4       5.469  22.310  43.939  0.00  0.00    -0.292 N 
ATOM     29 HH11 ARG A   4       4.637  22.647  44.465  0.00  0.00    +0.255 HD
ATOM     30 HH12 ARG A   4       5.389  22.090  42.926  0.00  0.00    +0.255 HD
ATOM     31  HE  ARG A   4       7.637  21.699  42.848  0.00  0.00    +0.259 HD
ENDBRANCH  22  23
ENDBRANCH  21  22
ENDBRANCH  20  21
ENDBRANCH   6  20
ENDBRANCH   3   6
ENDBRANCH   1   2
BRANCH   1  34
ATOM     32  C   PRO A   2       7.151  14.049  42.257  0.00  0.00    +0.241 C 
ATOM     33  O   PRO A   2       7.713  13.528  43.223  0.00  0.00    -0.273 OA
ATOM     34  N   TRP A   3       7.673  14.957  41.467  0.00  0.00    -0.297 N 
ATOM     35  H   TRP A   3       7.127  15.317  40.658  0.00  0.00    +0.150 HD
BRANCH  32  41
ATOM     36  C   TYR A   1       5.970  11.244  41.871  0.00  0.00    +0.242 C 
ATOM     37  N   PRO A   2       5.444  12.312  42.459  0.00  0.00    -0.272 N 
ATOM     38  CD  PRO A   2       4.653  12.360  43.707  0.00  0.00    +0.094 C 
ATOM     39  CG  PRO A   2       4.495  13.831  43.986  0.00  0.00    +0.024 C 
ATOM     40  CB  PRO A   2       4.661  14.522  42.649  0.00  0.00    +0.031 C 
ATOM     41  CA  PRO A   2       5.697  13.667  41.898  0.00  0.00    +0.152 C 
ATOM     42  O   TYR A   1       6.670  11.267  40.869  0.00  0.00    -0.273 OA
BRANCH  36  43
ATOM     43  CA  TYR A   1       5.554   9.953  42.555  0.00  0.00    +0.149 C 
BRANCH  43  44
ATOM     44  N   TYR A   1       5.462   8.822  41.574  0.00  0.00    -0.238 NA
ATOM     45  H   TYR A   1       5.951   8.898  40.659  0.00  0.00    +0.142 HD
ENDBRANCH  43  44
BRANCH  43  46
ATOM     46  CB  TYR A   1       6.398   9.675  43.787  0.00  0.00    +0.053 C 
BRANCH  46  47
ATOM     47  CG  TYR A   1       7.834   9.406  43.341  0.00  0.00    -0.020 A 
ATOM     48  CD2 TYR A   1       8.755  10.443  43.213  0.00  0.00    -0.001 A 
ATOM     49  CE2 TYR A   1      10.039  10.168  42.787  0.00  0.00    +0.036 A 
ATOM     50  CZ  TYR A   1      10.390   8.850  42.462  0.00  0.00    +0.134 A 
ATOM     51  CE1 TYR A   1       9.463   7.811  42.584  0.00  0.00    +0.036 A 
ATOM     52  CD1 TYR A   1       8.172   8.119  43.026  0.00  0.00    -0.001 A 
BRANCH  50  53
ATOM     53  OH  TYR A   1      11.632   8.485  42.062  0.00  0.00    -0.506 OA
ATOM     54  HH  TYR A   1      11.648   7.511  41.888  0.00  0.00    +0.292 HD
ENDBRANCH  50  53
ENDBRANCH  46  47
ENDBRANCH  43  46
ENDBRANCH  36  43
ENDBRANCH  32  41
ENDBRANCH   1  34
BRANCH   1  55
ATOM     55  CB  TRP A   3      10.097  14.510  41.223  0.00  0.00    +0.057 C 
BRANCH  55  56
ATOM     56  CG  TRP A   3      10.101  14.262  39.751  0.00  0.00    -0.002 A 
ATOM     57  CD1 TRP A   3       9.128  13.645  38.982  0.00  0.00    +0.068 A 
ATOM     58  NE1 TRP A   3       9.505  13.578  37.663  0.00  0.00    -0.352 N 
ATOM     59  CE2 TRP A   3      10.788  14.089  37.565  0.00  0.00    +0.056 A 
ATOM     60  CZ2 TRP A   3      11.608  14.206  36.448  0.00  0.00    +0.017 A 
ATOM     61  CH2 TRP A   3      12.859  14.777  36.651  0.00  0.00    +0.001 A 
ATOM     62  CZ3 TRP A   3      13.261  15.226  37.912  0.00  0.00    +0.000 A 
ATOM     63  CE3 TRP A   3      12.450  15.093  39.035  0.00  0.00    +0.001 A 
ATOM     64  HE1 TRP A   3       8.930  13.210  36.879  0.00  0.00    +0.166 HD
ATOM     65  CD2 TRP A   3      11.187  14.531  38.848  0.00  0.00    +0.013 A 
ENDBRANCH  55  56
ENDBRANCH   1  55
TORSDOF 20
REMARK  Name = ../refined-set-2016/3pcf/3pcf_pocket.pdb
REMARK  137 active torsions:
REMARK  status: ('A' for Active; 'I' for Inactive)
REMARK    1  A    between atoms: _1  and  _3
REMARK    2  A    between atoms: _3  and  _4
REMARK    3  A    between atoms: _3  and  _6
REMARK    4  A    between atoms: _6  and  _7
REMARK    5  A    between atoms: _7  and  _8
REMARK    6  A    between atoms: _13  and  _15
REMARK    7  A    between atoms: _15  and  _16
REMARK    8  A    between atoms: _15  and  _18
REMARK    9  A    between atoms: _18  and  _19
REMARK   10  A    between atoms: _22  and  _24
REMARK   11  A    between atoms: _24  and  _25
REMARK   12  A    between atoms: _28  and  _30
REMARK   13  A    between atoms: _30  and  _31
REMARK   14  A    between atoms: _34  and  _35
REMARK   15  A    between atoms: _40  and  _42
REMARK   16  A    between atoms: _42  and  _43
REMARK   17  A    between atoms: _42  and  _45
REMARK   18  A    between atoms: _45  and  _46
REMARK   19  A    between atoms: _51  and  _52
REMARK   20  A    between atoms: _54  and  _56
REMARK   21  A    between atoms: _56  and  _57
REMARK   22  A    between atoms: _56  and  _59
REMARK   23  A    between atoms: _62  and  _64
REMARK   24  A    between atoms: _64  and  _65
REMARK   25  A    between atoms: _64  and  _67
REMARK   26  A    between atoms: _67  and  _68
REMARK   27  A    between atoms: _71  and  _73
REMARK   28  A    between atoms: _73  and  _74
REMARK   29  A    between atoms: _77  and  _79
REMARK   30  A    between atoms: _79  and  _80
REMARK   31  A    between atoms: _79  and  _82
REMARK   32  A    between atoms: _82  and  _83
REMARK   33  A    between atoms: _83  and  _84
REMARK   34  A    between atoms: _84  and  _85
REMARK   35  A    between atoms: _94  and  _96
REMARK   36  A    between atoms: _96  and  _97
REMARK   37  A    between atoms: _99  and  _101
REMARK   38  A    between atoms: _101  and  _102
REMARK   39  A    between atoms: _101  and  _104
REMARK   40  A    between atoms: _104  and  _105
REMARK   41  A    between atoms: _108  and  _110
REMARK   42  A    between atoms: _110  and  _111
REMARK   43  A    between atoms: _110  and  _113
REMARK   44  A    between atoms: _113  and  _114
REMARK   45  A    between atoms: _119  and  _121
REMARK   46  A    between atoms: _121  and  _122
REMARK   47  A    between atoms: _121  and  _124
REMARK   48  A    between atoms: _124  and  _125
REMARK   49  A    between atoms: _130  and  _131
REMARK   50  A    between atoms: _133  and  _135
REMARK   51  A    between atoms: _135  and  _136
REMARK   52  A    between atoms: _135  and  _138
REMARK   53  A    between atoms: _138  and  _139
REMARK   54  A    between atoms: _139  and  _140
REMARK   55  A    between atoms: _140  and  _141
REMARK   56  A    between atoms: _141  and  _142
REMARK   57  A    between atoms: _146  and  _148
REMARK   58  A    between atoms: _148  and  _149
REMARK   59  A    between atoms: _148  and  _151
REMARK   60  A    between atoms: _151  and  _152
REMARK   61  A    between atoms: _155  and  _157
REMARK   62  A    between atoms: _157  and  _158
REMARK   63  A    between atoms: _157  and  _160
REMARK   64  A    between atoms: _160  and  _161
REMARK   65  A    between atoms: _163  and  _165
REMARK   66  A    between atoms: _165  and  _166
REMARK   67  A    between atoms: _165  and  _168
REMARK   68  A    between atoms: _168  and  _169
REMARK   69  A    between atoms: _169  and  _170
REMARK   70  A    between atoms: _170  and  _171
REMARK   71  A    between atoms: _180  and  _182
REMARK   72  A    between atoms: _182  and  _183
REMARK   73  A    between atoms: _182  and  _185
REMARK   74  A    between atoms: _185  and  _186
REMARK   75  A    between atoms: _196  and  _198
REMARK   76  A    between atoms: _198  and  _199
REMARK   77  A    between atoms: _202  and  _204
REMARK   78  A    between atoms: _204  and  _205
REMARK   79  A    between atoms: _204  and  _207
REMARK   80  A    between atoms: _207  and  _208
REMARK   81  A    between atoms: _213  and  _214
REMARK   82  A    between atoms: _216  and  _218
REMARK   83  A    between atoms: _218  and  _219
REMARK   84  A    between atoms: _218  and  _221
REMARK   85  A    between atoms: _221  and  _222
REMARK   86  A    between atoms: _227  and  _228
REMARK   87  A    between atoms: _231  and  _232
REMARK   88  A    between atoms: _237  and  _239
REMARK   89  A    between atoms: _239  and  _240
REMARK   90  A    between atoms: _239  and  _242
REMARK   91  A    between atoms: _242  and  _243
REMARK   92  A    between atoms: _253  and  _255
REMARK   93  A    between atoms: _255  and  _256
REMARK   94  A    between atoms: _255  and  _258
REMARK   95  A    between atoms: _258  and  _259
REMARK   96  A    between atoms: _259  and  _260
REMARK   97  A    between atoms: _260  and  _261
REMARK   98  A    between atoms: _270  and  _272
REMARK   99  A    between atoms: _272  and  _273
REMARK  100  A    between atoms: _272  and  _275
REMARK  101  A    between atoms: _275  and  _276
REMARK  102  A    between atoms: _281  and  _283
REMARK  103  A    between atoms: _283  and  _284
REMARK  104  A    between atoms: _283  and  _286
REMARK  105  A    between atoms: _286  and  _287
REMARK  106  A    between atoms: _287  and  _288
REMARK  107  A    between atoms: _288  and  _289
REMARK  108  A    between atoms: _299  and  _300
REMARK  109  A    between atoms: _305  and  _307
REMARK  110  A    between atoms: _318  and  _321
REMARK  111  A    between atoms: _321  and  _322
REMARK  112  A    between atoms: _327  and  _328
REMARK  113  A    between atoms: _336  and  _338
REMARK  114  A    between atoms: _338  and  _339
REMARK  115  A    between atoms: _338  and  _341
REMARK  116  A    between atoms: _341  and  _342
REMARK  117  A    between atoms: _345  and  _347
REMARK  118  A    between atoms: _347  and  _348
REMARK  119  A    between atoms: _347  and  _350
REMARK  120  A    between atoms: _351  and  _352
REMARK  121  A    between atoms: _357  and  _359
REMARK  122  A    between atoms: _359  and  _360
REMARK  123  A    between atoms: _359  and  _362
REMARK  124  A    between atoms: _362  and  _363
REMARK  125  A    between atoms: _368  and  _369
REMARK  126  A    between atoms: _371  and  _373
REMARK  127  A    between atoms: _373  and  _374
REMARK  128  A    between atoms: _373  and  _376
REMARK  129  A    between atoms: _378  and  _380
REMARK  130  A    between atoms: _380  and  _381
REMARK  131  A    between atoms: _380  and  _383
REMARK  132  A    between atoms: _383  and  _384
REMARK  133  A    between atoms: _387  and  _389
REMARK  134  A    between atoms: _389  and  _390
REMARK  135  A    between atoms: _389  and  _392
REMARK  136  A    between atoms: _392  and  _393
REMARK  137  A    between atoms: _393  and  _394
REMARK                            x       y       z     vdW  Elec       q    Type
REMARK                         _______ _______ _______ _____ _____    ______ ____
ROOT
ATOM      1  CA  ARG A   1       8.123   9.519  37.534  0.00  0.00    +0.145 C 
ENDROOT
BRANCH   1   2
ATOM      2  C   ARG A   1       7.112   8.328  37.421  0.00  0.00    +0.241 C 
ATOM      3  O   ARG A   1       6.347   8.116  38.365  0.00  0.00    -0.273 OA
ATOM      4  N   PRO A   2       7.296   7.570  36.366  0.00  0.00    -0.273 N 
ATOM      5  CA  PRO A   2       6.513   6.320  36.224  0.00  0.00    +0.140 C 
ATOM      6  CB  PRO A   2       7.104   5.674  34.960  0.00  0.00    +0.030 C 
ATOM      7  CG  PRO A   2       7.896   6.741  34.267  0.00  0.00    +0.024 C 
ATOM      8  CD  PRO A   2       8.300   7.734  35.315  0.00  0.00    +0.094 C 
BRANCH   5   9
ATOM      9  C   PRO A   2       6.983   5.450  37.407  0.00  0.00    +0.227 C 
ATOM     10  O   PRO A   2       8.049   5.737  38.028  0.00  0.00    -0.286 OA
ENDBRANCH   5   9
ENDBRANCH   1   2
BRANCH   1  11
ATOM     11  N   ARG A   1       7.267  10.642  38.051  0.00  0.00    -0.238 NA
ATOM     12  H   ARG A   1       7.288  10.916  39.054  0.00  0.00    +0.142 HD
ENDBRANCH   1  11
BRANCH   1  13
ATOM     13  CB  ARG A   1       9.143   9.028  38.587  0.00  0.00    +0.030 C 
BRANCH  13  14
ATOM     14  CG  ARG A   1      10.163   9.995  39.145  0.00  0.00    +0.045 C 
BRANCH  14  15
ATOM     15  CD  ARG A   1      11.069  10.552  38.063  0.00  0.00    +0.174 C 
BRANCH  15  16
ATOM     16  NE  ARG A   1      11.320   9.601  36.966  0.00  0.00    -0.265 N 
ATOM     17  CZ  ARG A   1      12.097   8.517  37.020  0.00  0.00    +0.342 C 
ATOM     18  NH2 ARG A   1      12.722   8.171  38.130  0.00  0.00    -0.292 N 
ATOM     19 HH21 ARG A   1      12.615   8.748  38.989  0.00  0.00    +0.255 HD
ATOM     20 HH22 ARG A   1      13.322   7.322  38.146  0.00  0.00    +0.255 HD
ATOM     21  NH1 ARG A   1      12.290   7.828  35.842  0.00  0.00    -0.292 N 
ATOM     22 HH11 ARG A   1      12.887   6.976  35.829  0.00  0.00    +0.255 HD
ATOM     23 HH12 ARG A   1      11.839   8.160  34.966  0.00  0.00    +0.255 HD
ATOM     24  HE  ARG A   1      10.845   9.793  36.061  0.00  0.00    +0.259 HD
ENDBRANCH  15  16
ENDBRANCH  14  15
ENDBRANCH  13  14
ENDBRANCH   1  13
TORSDOF 7
REMARK  Name = ../refined-set-2016/3pcf/3pcf_pocket.pdb
REMARK  137 active torsions:
REMARK  status: ('A' for Active; 'I' for Inactive)
REMARK    1  A    between atoms: _1  and  _3
REMARK    2  A    between atoms: _3  and  _4
REMARK    3  A    between atoms: _3  and  _6
REMARK    4  A    between atoms: _6  and  _7
REMARK    5  A    between atoms: _7  and  _8
REMARK    6  A    between atoms: _13  and  _15
REMARK    7  A    between atoms: _15  and  _16
REMARK    8  A    between atoms: _15  and  _18
REMARK    9  A    between atoms: _18  and  _19
REMARK   10  A    between atoms: _22  and  _24
REMARK   11  A    between atoms: _24  and  _25
REMARK   12  A    between atoms: _28  and  _30
REMARK   13  A    between atoms: _30  and  _31
REMARK   14  A    between atoms: _34  and  _35
REMARK   15  A    between atoms: _40  and  _42
REMARK   16  A    between atoms: _42  and  _43
REMARK   17  A    between atoms: _42  and  _45
REMARK   18  A    between atoms: _45  and  _46
REMARK   19  A    between atoms: _51  and  _52
REMARK   20  A    between atoms: _54  and  _56
REMARK   21  A    between atoms: _56  and  _57
REMARK   22  A    between atoms: _56  and  _59
REMARK   23  A    between atoms: _62  and  _64
REMARK   24  A    between atoms: _64  and  _65
REMARK   25  A    between atoms: _64  and  _67
REMARK   26  A    between atoms: _67  and  _68
REMARK   27  A    between atoms: _71  and  _73
REMARK   28  A    between atoms: _73  and  _74
REMARK   29  A    between atoms: _77  and  _79
REMARK   30  A    between atoms: _79  and  _80
REMARK   31  A    between atoms: _79  and  _82
REMARK   32  A    between atoms: _82  and  _83
REMARK   33  A    between atoms: _83  and  _84
REMARK   34  A    between atoms: _84  and  _85
REMARK   35  A    between atoms: _94  and  _96
REMARK   36  A    between atoms: _96  and  _97
REMARK   37  A    between atoms: _99  and  _101
REMARK   38  A    between atoms: _101  and  _102
REMARK   39  A    between atoms: _101  and  _104
REMARK   40  A    between atoms: _104  and  _105
REMARK   41  A    between atoms: _108  and  _110
REMARK   42  A    between atoms: _110  and  _111
REMARK   43  A    between atoms: _110  and  _113
REMARK   44  A    between atoms: _113  and  _114
REMARK   45  A    between atoms: _119  and  _121
REMARK   46  A    between atoms: _121  and  _122
REMARK   47  A    between atoms: _121  and  _124
REMARK   48  A    between atoms: _124  and  _125
REMARK   49  A    between atoms: _130  and  _131
REMARK   50  A    between atoms: _133  and  _135
REMARK   51  A    between atoms: _135  and  _136
REMARK   52  A    between atoms: _135  and  _138
REMARK   53  A    between atoms: _138  and  _139
REMARK   54  A    between atoms: _139  and  _140
REMARK   55  A    between atoms: _140  and  _141
REMARK   56  A    between atoms: _141  and  _142
REMARK   57  A    between atoms: _146  and  _148
REMARK   58  A    between atoms: _148  and  _149
REMARK   59  A    between atoms: _148  and  _151
REMARK   60  A    between atoms: _151  and  _152
REMARK   61  A    between atoms: _155  and  _157
REMARK   62  A    between atoms: _157  and  _158
REMARK   63  A    between atoms: _157  and  _160
REMARK   64  A    between atoms: _160  and  _161
REMARK   65  A    between atoms: _163  and  _165
REMARK   66  A    between atoms: _165  and  _166
REMARK   67  A    between atoms: _165  and  _168
REMARK   68  A    between atoms: _168  and  _169
REMARK   69  A    between atoms: _169  and  _170
REMARK   70  A    between atoms: _170  and  _171
REMARK   71  A    between atoms: _180  and  _182
REMARK   72  A    between atoms: _182  and  _183
REMARK   73  A    between atoms: _182  and  _185
REMARK   74  A    between atoms: _185  and  _186
REMARK   75  A    between atoms: _196  and  _198
REMARK   76  A    between atoms: _198  and  _199
REMARK   77  A    between atoms: _202  and  _204
REMARK   78  A    between atoms: _204  and  _205
REMARK   79  A    between atoms: _204  and  _207
REMARK   80  A    between atoms: _207  and  _208
REMARK   81  A    between atoms: _213  and  _214
REMARK   82  A    between atoms: _216  and  _218
REMARK   83  A    between atoms: _218  and  _219
REMARK   84  A    between atoms: _218  and  _221
REMARK   85  A    between atoms: _221  and  _222
REMARK   86  A    between atoms: _227  and  _228
REMARK   87  A    between atoms: _231  and  _232
REMARK   88  A    between atoms: _237  and  _239
REMARK   89  A    between atoms: _239  and  _240
REMARK   90  A    between atoms: _239  and  _242
REMARK   91  A    between atoms: _242  and  _243
REMARK   92  A    between atoms: _253  and  _255
REMARK   93  A    between atoms: _255  and  _256
REMARK   94  A    between atoms: _255  and  _258
REMARK   95  A    between atoms: _258  and  _259
REMARK   96  A    between atoms: _259  and  _260
REMARK   97  A    between atoms: _260  and  _261
REMARK   98  A    between atoms: _270  and  _272
REMARK   99  A    between atoms: _272  and  _273
REMARK  100  A    between atoms: _272  and  _275
REMARK  101  A    between atoms: _275  and  _276
REMARK  102  A    between atoms: _281  and  _283
REMARK  103  A    between atoms: _283  and  _284
REMARK  104  A    between atoms: _283  and  _286
REMARK  105  A    between atoms: _286  and  _287
REMARK  106  A    between atoms: _287  and  _288
REMARK  107  A    between atoms: _288  and  _289
REMARK  108  A    between atoms: _299  and  _300
REMARK  109  A    between atoms: _305  and  _307
REMARK  110  A    between atoms: _318  and  _321
REMARK  111  A    between atoms: _321  and  _322
REMARK  112  A    between atoms: _327  and  _328
REMARK  113  A    between atoms: _336  and  _338
REMARK  114  A    between atoms: _338  and  _339
REMARK  115  A    between atoms: _338  and  _341
REMARK  116  A    between atoms: _341  and  _342
REMARK  117  A    between atoms: _345  and  _347
REMARK  118  A    between atoms: _347  and  _348
REMARK  119  A    between atoms: _347  and  _350
REMARK  120  A    between atoms: _351  and  _352
REMARK  121  A    between atoms: _357  and  _359
REMARK  122  A    between atoms: _359  and  _360
REMARK  123  A    between atoms: _359  and  _362
REMARK  124  A    between atoms: _362  and  _363
REMARK  125  A    between atoms: _368  and  _369
REMARK  126  A    between atoms: _371  and  _373
REMARK  127  A    between atoms: _373  and  _374
REMARK  128  A    between atoms: _373  and  _376
REMARK  129  A    between atoms: _378  and  _380
REMARK  130  A    between atoms: _380  and  _381
REMARK  131  A    between atoms: _380  and  _383
REMARK  132  A    between atoms: _383  and  _384
REMARK  133  A    between atoms: _387  and  _389
REMARK  134  A    between atoms: _389  and  _390
REMARK  135  A    between atoms: _389  and  _392
REMARK  136  A    between atoms: _392  and  _393
REMARK  137  A    between atoms: _393  and  _394
REMARK                            x       y       z     vdW  Elec       q    Type
REMARK                         _______ _______ _______ _____ _____    ______ ____
ROOT
ATOM      1  C   UNK A   1      10.231   2.263  38.646  0.00  0.00    +0.000 C 
ATOM      2  C   UNK A   1      11.037   1.729  39.834  0.00  0.00    +0.000 C 
ATOM      3  O   UNK A   1      10.778   2.119  40.952  0.00  0.00    +0.000 OA
ATOM      4  N   ILE A   2      11.945   0.837  39.433  0.00  0.00    +0.000 N 
ATOM      5  CA  ILE A   2      12.887   0.216  40.422  0.00  0.00    +0.000 C 
ATOM      6  C   ILE A   2      14.283   0.696  39.945  0.00  0.00    +0.000 C 
ATOM      7  N   UNK A   3      15.049   1.153  40.868  0.00  0.00    +0.000 N 
ATOM      8  H   UNK A   3      14.696   1.201  41.845  0.00  0.00    +0.000 HD
ATOM      9  C   UNK A   3      16.449   1.621  40.565  0.00  0.00    +0.000 C 
ATOM     10  C   UNK A   3      16.951   2.545  41.756  0.00  0.00    +0.000 C 
ATOM     11  C   UNK A   3      16.256   3.867  41.589  0.00  0.00    +0.000 A 
ATOM     12  C   UNK A   3      15.136   4.353  42.185  0.00  0.00    +0.000 A 
ATOM     13  N   UNK A   3      14.947   5.598  41.648  0.00  0.00    +0.000 N 
ATOM     14 FE   UNK A   3      13.288   7.086  42.090  0.00  0.00    +0.000 Fe
ATOM     15  O   UNK A   3      14.685   8.361  43.058  0.00  0.00    +0.000 OA
ATOM     16  N   UNK A   3      12.363   5.624  40.566  0.00  0.00    +0.000 N 
ATOM     17  C   UNK A   3      11.186   6.196  40.312  0.00  0.00    +0.000 A 
ATOM     18  N   UNK A   3      10.575   5.480  39.379  0.00  0.00    +0.000 NA
ATOM     19  C   UNK A   3      11.401   4.446  38.972  0.00  0.00    +0.000 A 
ATOM     20  C   UNK A   3      12.510   4.553  39.733  0.00  0.00    +0.000 A 
ATOM     21  C   UNK A   3      15.898   5.894  40.799  0.00  0.00    +0.000 A 
ATOM     22  N   UNK A   3      16.727   4.878  40.759  0.00  0.00    +0.000 NA
ATOM     23  O   ILE A   2      14.508   0.688  38.727  0.00  0.00    +0.000 OA
ATOM     24  H   ILE A   2      12.000   0.571  38.429  0.00  0.00    +0.000 HD
ATOM     25  C   UNK A   3      11.050   3.426  37.953  0.00  0.00    +0.000 C 
ENDROOT
BRANCH   1  26
ATOM     26  N   UNK A   1       8.895   2.802  39.131  0.00  0.00    +0.000 NA
ATOM     27  H   UNK A   1       8.731   3.060  40.125  0.00  0.00    +0.000 HD
ENDBRANCH   1  26
BRANCH   5  28
ATOM     28  CB  ILE A   2      12.787  -1.310  40.492  0.00  0.00    +0.000 C 
ATOM     29  CG2 ILE A   2      13.905  -2.076  41.289  0.00  0.00    +0.000 C 
BRANCH  28  30
ATOM     30  CG1 ILE A   2      11.403  -1.644  41.246  0.00  0.00    +0.000 C 
ATOM     31  CD1 ILE A   2      11.048  -3.136  41.067  0.00  0.00    +0.000 C 
ENDBRANCH  28  30
ENDBRANCH   5  28
BRANCH   9  32
ATOM     32  C   UNK A   3      17.325   0.362  40.660  0.00  0.00    +0.000 C 
ATOM     33  O   UNK A   3      17.149  -0.328  41.698  0.00  0.00    +0.000 OA
ENDBRANCH   9  32
TORSDOF 4
REMARK  Name = ../refined-set-2016/3pcf/3pcf_pocket.pdb
REMARK  137 active torsions:
REMARK  status: ('A' for Active; 'I' for Inactive)
REMARK    1  A    between atoms: _1  and  _3
REMARK    2  A    between atoms: _3  and  _4
REMARK    3  A    between atoms: _3  and  _6
REMARK    4  A    between atoms: _6  and  _7
REMARK    5  A    between atoms: _7  and  _8
REMARK    6  A    between atoms: _13  and  _15
REMARK    7  A    between atoms: _15  and  _16
REMARK    8  A    between atoms: _15  and  _18
REMARK    9  A    between atoms: _18  and  _19
REMARK   10  A    between atoms: _22  and  _24
REMARK   11  A    between atoms: _24  and  _25
REMARK   12  A    between atoms: _28  and  _30
REMARK   13  A    between atoms: _30  and  _31
REMARK   14  A    between atoms: _34  and  _35
REMARK   15  A    between atoms: _40  and  _42
REMARK   16  A    between atoms: _42  and  _43
REMARK   17  A    between atoms: _42  and  _45
REMARK   18  A    between atoms: _45  and  _46
REMARK   19  A    between atoms: _51  and  _52
REMARK   20  A    between atoms: _54  and  _56
REMARK   21  A    between atoms: _56  and  _57
REMARK   22  A    between atoms: _56  and  _59
REMARK   23  A    between atoms: _62  and  _64
REMARK   24  A    between atoms: _64  and  _65
REMARK   25  A    between atoms: _64  and  _67
REMARK   26  A    between atoms: _67  and  _68
REMARK   27  A    between atoms: _71  and  _73
REMARK   28  A    between atoms: _73  and  _74
REMARK   29  A    between atoms: _77  and  _79
REMARK   30  A    between atoms: _79  and  _80
REMARK   31  A    between atoms: _79  and  _82
REMARK   32  A    between atoms: _82  and  _83
REMARK   33  A    between atoms: _83  and  _84
REMARK   34  A    between atoms: _84  and  _85
REMARK   35  A    between atoms: _94  and  _96
REMARK   36  A    between atoms: _96  and  _97
REMARK   37  A    between atoms: _99  and  _101
REMARK   38  A    between atoms: _101  and  _102
REMARK   39  A    between atoms: _101  and  _104
REMARK   40  A    between atoms: _104  and  _105
REMARK   41  A    between atoms: _108  and  _110
REMARK   42  A    between atoms: _110  and  _111
REMARK   43  A    between atoms: _110  and  _113
REMARK   44  A    between atoms: _113  and  _114
REMARK   45  A    between atoms: _119  and  _121
REMARK   46  A    between atoms: _121  and  _122
REMARK   47  A    between atoms: _121  and  _124
REMARK   48  A    between atoms: _124  and  _125
REMARK   49  A    between atoms: _130  and  _131
REMARK   50  A    between atoms: _133  and  _135
REMARK   51  A    between atoms: _135  and  _136
REMARK   52  A    between atoms: _135  and  _138
REMARK   53  A    between atoms: _138  and  _139
REMARK   54  A    between atoms: _139  and  _140
REMARK   55  A    between atoms: _140  and  _141
REMARK   56  A    between atoms: _141  and  _142
REMARK   57  A    between atoms: _146  and  _148
REMARK   58  A    between atoms: _148  and  _149
REMARK   59  A    between atoms: _148  and  _151
REMARK   60  A    between atoms: _151  and  _152
REMARK   61  A    between atoms: _155  and  _157
REMARK   62  A    between atoms: _157  and  _158
REMARK   63  A    between atoms: _157  and  _160
REMARK   64  A    between atoms: _160  and  _161
REMARK   65  A    between atoms: _163  and  _165
REMARK   66  A    between atoms: _165  and  _166
REMARK   67  A    between atoms: _165  and  _168
REMARK   68  A    between atoms: _168  and  _169
REMARK   69  A    between atoms: _169  and  _170
REMARK   70  A    between atoms: _170  and  _171
REMARK   71  A    between atoms: _180  and  _182
REMARK   72  A    between atoms: _182  and  _183
REMARK   73  A    between atoms: _182  and  _185
REMARK   74  A    between atoms: _185  and  _186
REMARK   75  A    between atoms: _196  and  _198
REMARK   76  A    between atoms: _198  and  _199
REMARK   77  A    between atoms: _202  and  _204
REMARK   78  A    between atoms: _204  and  _205
REMARK   79  A    between atoms: _204  and  _207
REMARK   80  A    between atoms: _207  and  _208
REMARK   81  A    between atoms: _213  and  _214
REMARK   82  A    between atoms: _216  and  _218
REMARK   83  A    between atoms: _218  and  _219
REMARK   84  A    between atoms: _218  and  _221
REMARK   85  A    between atoms: _221  and  _222
REMARK   86  A    between atoms: _227  and  _228
REMARK   87  A    between atoms: _231  and  _232
REMARK   88  A    between atoms: _237  and  _239
REMARK   89  A    between atoms: _239  and  _240
REMARK   90  A    between atoms: _239  and  _242
REMARK   91  A    between atoms: _242  and  _243
REMARK   92  A    between atoms: _253  and  _255
REMARK   93  A    between atoms: _255  and  _256
REMARK   94  A    between atoms: _255  and  _258
REMARK   95  A    between atoms: _258  and  _259
REMARK   96  A    between atoms: _259  and  _260
REMARK   97  A    between atoms: _260  and  _261
REMARK   98  A    between atoms: _270  and  _272
REMARK   99  A    between atoms: _272  and  _273
REMARK  100  A    between atoms: _272  and  _275
REMARK  101  A    between atoms: _275  and  _276
REMARK  102  A    between atoms: _281  and  _283
REMARK  103  A    between atoms: _283  and  _284
REMARK  104  A    between atoms: _283  and  _286
REMARK  105  A    between atoms: _286  and  _287
REMARK  106  A    between atoms: _287  and  _288
REMARK  107  A    between atoms: _288  and  _289
REMARK  108  A    between atoms: _299  and  _300
REMARK  109  A    between atoms: _305  and  _307
REMARK  110  A    between atoms: _318  and  _321
REMARK  111  A    between atoms: _321  and  _322
REMARK  112  A    between atoms: _327  and  _328
REMARK  113  A    between atoms: _336  and  _338
REMARK  114  A    between atoms: _338  and  _339
REMARK  115  A    between atoms: _338  and  _341
REMARK  116  A    between atoms: _341  and  _342
REMARK  117  A    between atoms: _345  and  _347
REMARK  118  A    between atoms: _347  and  _348
REMARK  119  A    between atoms: _347  and  _350
REMARK  120  A    between atoms: _351  and  _352
REMARK  121  A    between atoms: _357  and  _359
REMARK  122  A    between atoms: _359  and  _360
REMARK  123  A    between atoms: _359  and  _362
REMARK  124  A    between atoms: _362  and  _363
REMARK  125  A    between atoms: _368  and  _369
REMARK  126  A    between atoms: _371  and  _373
REMARK  127  A    between atoms: _373  and  _374
REMARK  128  A    between atoms: _373  and  _376
REMARK  129  A    between atoms: _378  and  _380
REMARK  130  A    between atoms: _380  and  _381
REMARK  131  A    between atoms: _380  and  _383
REMARK  132  A    between atoms: _383  and  _384
REMARK  133  A    between atoms: _387  and  _389
REMARK  134  A    between atoms: _389  and  _390
REMARK  135  A    between atoms: _389  and  _392
REMARK  136  A    between atoms: _392  and  _393
REMARK  137  A    between atoms: _393  and  _394
REMARK                            x       y       z     vdW  Elec       q    Type
REMARK                         _______ _______ _______ _____ _____    ______ ____
ROOT
ATOM      1  C   THR A   1      18.398   2.040  36.330  0.00  0.00    +0.241 C 
ATOM      2  O   THR A   1      18.390   2.082  37.574  0.00  0.00    -0.274 OA
ATOM      3  N   GLN A   2      17.321   1.997  35.570  0.00  0.00    -0.295 N 
ATOM      4  H   GLN A   2      17.407   1.948  34.535  0.00  0.00    +0.150 HD
ENDROOT
BRANCH   1   5
ATOM      5  CA  THR A   1      19.700   2.069  35.508  0.00  0.00    +0.172 C 
BRANCH   5   6
ATOM      6  N   THR A   1      20.858   1.897  36.352  0.00  0.00    -0.236 NA
ATOM      7  H   THR A   1      20.785   1.286  37.190  0.00  0.00    +0.142 HD
ENDBRANCH   5   6
BRANCH   5   8
ATOM      8  CB  THR A   1      19.718   1.120  34.269  0.00  0.00    +0.135 C 
ATOM      9  CG2 THR A   1      19.470  -0.364  34.525  0.00  0.00    +0.034 C 
BRANCH   8  10
ATOM     10  OG1 THR A   1      18.792   1.685  33.285  0.00  0.00    -0.383 OA
ATOM     11  HG1 THR A   1      18.775   1.109  32.480  0.00  0.00    +0.210 HD
ENDBRANCH   8  10
ENDBRANCH   5   8
ENDBRANCH   1   5
BRANCH   3  12
ATOM     12  CA  GLN A   2      15.951   2.020  36.232  0.00  0.00    +0.160 C 
BRANCH  12  13
ATOM     13  CB  GLN A   2      15.408   3.456  36.277  0.00  0.00    +0.006 C 
ATOM     14  CG  GLN A   2      16.125   4.488  37.104  0.00  0.00    +0.055 C 
BRANCH  14  15
ATOM     15  CD  GLN A   2      15.491   5.830  37.308  0.00  0.00    +0.243 C 
ATOM     16  OE1 GLN A   2      14.222   5.973  37.465  0.00  0.00    -0.270 OA
ATOM     17  NE2 GLN A   2      16.304   6.907  37.378  0.00  0.00    -0.325 N 
ATOM     18 HE21 GLN A   2      15.904   7.850  37.559  0.00  0.00    +0.145 HD
ATOM     19 HE22 GLN A   2      17.330   6.793  37.251  0.00  0.00    +0.145 HD
ENDBRANCH  14  15
ENDBRANCH  12  13
BRANCH  12  20
ATOM     20  C   GLN A   2      15.069   1.120  35.372  0.00  0.00    +0.231 C 
ATOM     21  O   GLN A   2      15.173   1.109  34.156  0.00  0.00    -0.286 OA
ENDBRANCH  12  20
ENDBRANCH   3  12
TORSDOF 8
REMARK  Name = ../refined-set-2016/3pcf/3pcf_pocket.pdb
REMARK  137 active torsions:
REMARK  status: ('A' for Active; 'I' for Inactive)
REMARK    1  A    between atoms: _1  and  _3
REMARK    2  A    between atoms: _3  and  _4
REMARK    3  A    between atoms: _3  and  _6
REMARK    4  A    between atoms: _6  and  _7
REMARK    5  A    between atoms: _7  and  _8
REMARK    6  A    between atoms: _13  and  _15
REMARK    7  A    between atoms: _15  and  _16
REMARK    8  A    between atoms: _15  and  _18
REMARK    9  A    between atoms: _18  and  _19
REMARK   10  A    between atoms: _22  and  _24
REMARK   11  A    between atoms: _24  and  _25
REMARK   12  A    between atoms: _28  and  _30
REMARK   13  A    between atoms: _30  and  _31
REMARK   14  A    between atoms: _34  and  _35
REMARK   15  A    between atoms: _40  and  _42
REMARK   16  A    between atoms: _42  and  _43
REMARK   17  A    between atoms: _42  and  _45
REMARK   18  A    between atoms: _45  and  _46
REMARK   19  A    between atoms: _51  and  _52
REMARK   20  A    between atoms: _54  and  _56
REMARK   21  A    between atoms: _56  and  _57
REMARK   22  A    between atoms: _56  and  _59
REMARK   23  A    between atoms: _62  and  _64
REMARK   24  A    between atoms: _64  and  _65
REMARK   25  A    between atoms: _64  and  _67
REMARK   26  A    between atoms: _67  and  _68
REMARK   27  A    between atoms: _71  and  _73
REMARK   28  A    between atoms: _73  and  _74
REMARK   29  A    between atoms: _77  and  _79
REMARK   30  A    between atoms: _79  and  _80
REMARK   31  A    between atoms: _79  and  _82
REMARK   32  A    between atoms: _82  and  _83
REMARK   33  A    between atoms: _83  and  _84
REMARK   34  A    between atoms: _84  and  _85
REMARK   35  A    between atoms: _94  and  _96
REMARK   36  A    between atoms: _96  and  _97
REMARK   37  A    between atoms: _99  and  _101
REMARK   38  A    between atoms: _101  and  _102
REMARK   39  A    between atoms: _101  and  _104
REMARK   40  A    between atoms: _104  and  _105
REMARK   41  A    between atoms: _108  and  _110
REMARK   42  A    between atoms: _110  and  _111
REMARK   43  A    between atoms: _110  and  _113
REMARK   44  A    between atoms: _113  and  _114
REMARK   45  A    between atoms: _119  and  _121
REMARK   46  A    between atoms: _121  and  _122
REMARK   47  A    between atoms: _121  and  _124
REMARK   48  A    between atoms: _124  and  _125
REMARK   49  A    between atoms: _130  and  _131
REMARK   50  A    between atoms: _133  and  _135
REMARK   51  A    between atoms: _135  and  _136
REMARK   52  A    between atoms: _135  and  _138
REMARK   53  A    between atoms: _138  and  _139
REMARK   54  A    between atoms: _139  and  _140
REMARK   55  A    between atoms: _140  and  _141
REMARK   56  A    between atoms: _141  and  _142
REMARK   57  A    between atoms: _146  and  _148
REMARK   58  A    between atoms: _148  and  _149
REMARK   59  A    between atoms: _148  and  _151
REMARK   60  A    between atoms: _151  and  _152
REMARK   61  A    between atoms: _155  and  _157
REMARK   62  A    between atoms: _157  and  _158
REMARK   63  A    between atoms: _157  and  _160
REMARK   64  A    between atoms: _160  and  _161
REMARK   65  A    between atoms: _163  and  _165
REMARK   66  A    between atoms: _165  and  _166
REMARK   67  A    between atoms: _165  and  _168
REMARK   68  A    between atoms: _168  and  _169
REMARK   69  A    between atoms: _169  and  _170
REMARK   70  A    between atoms: _170  and  _171
REMARK   71  A    between atoms: _180  and  _182
REMARK   72  A    between atoms: _182  and  _183
REMARK   73  A    between atoms: _182  and  _185
REMARK   74  A    between atoms: _185  and  _186
REMARK   75  A    between atoms: _196  and  _198
REMARK   76  A    between atoms: _198  and  _199
REMARK   77  A    between atoms: _202  and  _204
REMARK   78  A    between atoms: _204  and  _205
REMARK   79  A    between atoms: _204  and  _207
REMARK   80  A    between atoms: _207  and  _208
REMARK   81  A    between atoms: _213  and  _214
REMARK   82  A    between atoms: _216  and  _218
REMARK   83  A    between atoms: _218  and  _219
REMARK   84  A    between atoms: _218  and  _221
REMARK   85  A    between atoms: _221  and  _222
REMARK   86  A    between atoms: _227  and  _228
REMARK   87  A    between atoms: _231  and  _232
REMARK   88  A    between atoms: _237  and  _239
REMARK   89  A    between atoms: _239  and  _240
REMARK   90  A    between atoms: _239  and  _242
REMARK   91  A    between atoms: _242  and  _243
REMARK   92  A    between atoms: _253  and  _255
REMARK   93  A    between atoms: _255  and  _256
REMARK   94  A    between atoms: _255  and  _258
REMARK   95  A    between atoms: _258  and  _259
REMARK   96  A    between atoms: _259  and  _260
REMARK   97  A    between atoms: _260  and  _261
REMARK   98  A    between atoms: _270  and  _272
REMARK   99  A    between atoms: _272  and  _273
REMARK  100  A    between atoms: _272  and  _275
REMARK  101  A    between atoms: _275  and  _276
REMARK  102  A    between atoms: _281  and  _283
REMARK  103  A    between atoms: _283  and  _284
REMARK  104  A    between atoms: _283  and  _286
REMARK  105  A    between atoms: _286  and  _287
REMARK  106  A    between atoms: _287  and  _288
REMARK  107  A    between atoms: _288  and  _289
REMARK  108  A    between atoms: _299  and  _300
REMARK  109  A    between atoms: _305  and  _307
REMARK  110  A    between atoms: _318  and  _321
REMARK  111  A    between atoms: _321  and  _322
REMARK  112  A    between atoms: _327  and  _328
REMARK  113  A    between atoms: _336  and  _338
REMARK  114  A    between atoms: _338  and  _339
REMARK  115  A    between atoms: _338  and  _341
REMARK  116  A    between atoms: _341  and  _342
REMARK  117  A    between atoms: _345  and  _347
REMARK  118  A    between atoms: _347  and  _348
REMARK  119  A    between atoms: _347  and  _350
REMARK  120  A    between atoms: _351  and  _352
REMARK  121  A    between atoms: _357  and  _359
REMARK  122  A    between atoms: _359  and  _360
REMARK  123  A    between atoms: _359  and  _362
REMARK  124  A    between atoms: _362  and  _363
REMARK  125  A    between atoms: _368  and  _369
REMARK  126  A    between atoms: _371  and  _373
REMARK  127  A    between atoms: _373  and  _374
REMARK  128  A    between atoms: _373  and  _376
REMARK  129  A    between atoms: _378  and  _380
REMARK  130  A    between atoms: _380  and  _381
REMARK  131  A    between atoms: _380  and  _383
REMARK  132  A    between atoms: _383  and  _384
REMARK  133  A    between atoms: _387  and  _389
REMARK  134  A    between atoms: _389  and  _390
REMARK  135  A    between atoms: _389  and  _392
REMARK  136  A    between atoms: _392  and  _393
REMARK  137  A    between atoms: _393  and  _394
REMARK                            x       y       z     vdW  Elec       q    Type
REMARK                         _______ _______ _______ _____ _____    ______ ____
ROOT
ATOM      1  CG  TYR A   1      10.855   2.795  33.385  0.00  0.00    -0.021 A 
ATOM      2  CD2 TYR A   1      10.551   3.682  34.429  0.00  0.00    -0.001 A 
ATOM      3  CE2 TYR A   1      11.402   4.749  34.747  0.00  0.00    +0.036 A 
ATOM      4  CZ  TYR A   1      12.598   4.883  34.024  0.00  0.00    +0.134 A 
ATOM      5  CE1 TYR A   1      12.907   4.003  33.011  0.00  0.00    +0.036 A 
ATOM      6  CD1 TYR A   1      12.049   2.968  32.683  0.00  0.00    -0.001 A 
ENDROOT
BRANCH   4   7
ATOM      7  OH  TYR A   1      13.392   5.951  34.328  0.00  0.00    -0.506 OA
ATOM      8  HH  TYR A   1      13.464   6.543  33.538  0.00  0.00    +0.292 HD
ENDBRANCH   4   7
BRANCH   1   9
ATOM      9  CB  TYR A   1       9.901   1.635  33.086  0.00  0.00    +0.046 C 
BRANCH   9  10
ATOM     10  CA  TYR A   1       9.915   0.680  34.299  0.00  0.00    +0.106 C 
BRANCH  10  11
ATOM     11  N   TYR A   1      11.290   0.102  34.409  0.00  0.00    -0.244 NA
ATOM     12  H   TYR A   1      11.721  -0.312  33.558  0.00  0.00    +0.141 HD
ENDBRANCH  10  11
BRANCH  10  13
ATOM     13  C   TYR A   1       9.012  -0.538  34.026  0.00  0.00    +0.199 C 
ATOM     14  O   TYR A   1       9.605  -1.514  33.525  0.00  0.00    -0.219 OA
ENDBRANCH  10  13
ENDBRANCH   9  10
ENDBRANCH   1   9
TORSDOF 5
REMARK  Name = ../refined-set-2016/3pcf/3pcf_pocket.pdb
REMARK  137 active torsions:
REMARK  status: ('A' for Active; 'I' for Inactive)
REMARK    1  A    between atoms: _1  and  _3
REMARK    2  A    between atoms: _3  and  _4
REMARK    3  A    between atoms: _3  and  _6
REMARK    4  A    between atoms: _6  and  _7
REMARK    5  A    between atoms: _7  and  _8
REMARK    6  A    between atoms: _13  and  _15
REMARK    7  A    between atoms: _15  and  _16
REMARK    8  A    between atoms: _15  and  _18
REMARK    9  A    between atoms: _18  and  _19
REMARK   10  A    between atoms: _22  and  _24
REMARK   11  A    between atoms: _24  and  _25
REMARK   12  A    between atoms: _28  and  _30
REMARK   13  A    between atoms: _30  and  _31
REMARK   14  A    between atoms: _34  and  _35
REMARK   15  A    between atoms: _40  and  _42
REMARK   16  A    between atoms: _42  and  _43
REMARK   17  A    between atoms: _42  and  _45
REMARK   18  A    between atoms: _45  and  _46
REMARK   19  A    between atoms: _51  and  _52
REMARK   20  A    between atoms: _54  and  _56
REMARK   21  A    between atoms: _56  and  _57
REMARK   22  A    between atoms: _56  and  _59
REMARK   23  A    between atoms: _62  and  _64
REMARK   24  A    between atoms: _64  and  _65
REMARK   25  A    between atoms: _64  and  _67
REMARK   26  A    between atoms: _67  and  _68
REMARK   27  A    between atoms: _71  and  _73
REMARK   28  A    between atoms: _73  and  _74
REMARK   29  A    between atoms: _77  and  _79
REMARK   30  A    between atoms: _79  and  _80
REMARK   31  A    between atoms: _79  and  _82
REMARK   32  A    between atoms: _82  and  _83
REMARK   33  A    between atoms: _83  and  _84
REMARK   34  A    between atoms: _84  and  _85
REMARK   35  A    between atoms: _94  and  _96
REMARK   36  A    between atoms: _96  and  _97
REMARK   37  A    between atoms: _99  and  _101
REMARK   38  A    between atoms: _101  and  _102
REMARK   39  A    between atoms: _101  and  _104
REMARK   40  A    between atoms: _104  and  _105
REMARK   41  A    between atoms: _108  and  _110
REMARK   42  A    between atoms: _110  and  _111
REMARK   43  A    between atoms: _110  and  _113
REMARK   44  A    between atoms: _113  and  _114
REMARK   45  A    between atoms: _119  and  _121
REMARK   46  A    between atoms: _121  and  _122
REMARK   47  A    between atoms: _121  and  _124
REMARK   48  A    between atoms: _124  and  _125
REMARK   49  A    between atoms: _130  and  _131
REMARK   50  A    between atoms: _133  and  _135
REMARK   51  A    between atoms: _135  and  _136
REMARK   52  A    between atoms: _135  and  _138
REMARK   53  A    between atoms: _138  and  _139
REMARK   54  A    between atoms: _139  and  _140
REMARK   55  A    between atoms: _140  and  _141
REMARK   56  A    between atoms: _141  and  _142
REMARK   57  A    between atoms: _146  and  _148
REMARK   58  A    between atoms: _148  and  _149
REMARK   59  A    between atoms: _148  and  _151
REMARK   60  A    between atoms: _151  and  _152
REMARK   61  A    between atoms: _155  and  _157
REMARK   62  A    between atoms: _157  and  _158
REMARK   63  A    between atoms: _157  and  _160
REMARK   64  A    between atoms: _160  and  _161
REMARK   65  A    between atoms: _163  and  _165
REMARK   66  A    between atoms: _165  and  _166
REMARK   67  A    between atoms: _165  and  _168
REMARK   68  A    between atoms: _168  and  _169
REMARK   69  A    between atoms: _169  and  _170
REMARK   70  A    between atoms: _170  and  _171
REMARK   71  A    between atoms: _180  and  _182
REMARK   72  A    between atoms: _182  and  _183
REMARK   73  A    between atoms: _182  and  _185
REMARK   74  A    between atoms: _185  and  _186
REMARK   75  A    between atoms: _196  and  _198
REMARK   76  A    between atoms: _198  and  _199
REMARK   77  A    between atoms: _202  and  _204
REMARK   78  A    between atoms: _204  and  _205
REMARK   79  A    between atoms: _204  and  _207
REMARK   80  A    between atoms: _207  and  _208
REMARK   81  A    between atoms: _213  and  _214
REMARK   82  A    between atoms: _216  and  _218
REMARK   83  A    between atoms: _218  and  _219
REMARK   84  A    between atoms: _218  and  _221
REMARK   85  A    between atoms: _221  and  _222
REMARK   86  A    between atoms: _227  and  _228
REMARK   87  A    between atoms: _231  and  _232
REMARK   88  A    between atoms: _237  and  _239
REMARK   89  A    between atoms: _239  and  _240
REMARK   90  A    between atoms: _239  and  _242
REMARK   91  A    between atoms: _242  and  _243
REMARK   92  A    between atoms: _253  and  _255
REMARK   93  A    between atoms: _255  and  _256
REMARK   94  A    between atoms: _255  and  _258
REMARK   95  A    between atoms: _258  and  _259
REMARK   96  A    between atoms: _259  and  _260
REMARK   97  A    between atoms: _260  and  _261
REMARK   98  A    between atoms: _270  and  _272
REMARK   99  A    between atoms: _272  and  _273
REMARK  100  A    between atoms: _272  and  _275
REMARK  101  A    between atoms: _275  and  _276
REMARK  102  A    between atoms: _281  and  _283
REMARK  103  A    between atoms: _283  and  _284
REMARK  104  A    between atoms: _283  and  _286
REMARK  105  A    between atoms: _286  and  _287
REMARK  106  A    between atoms: _287  and  _288
REMARK  107  A    between atoms: _288  and  _289
REMARK  108  A    between atoms: _299  and  _300
REMARK  109  A    between atoms: _305  and  _307
REMARK  110  A    between atoms: _318  and  _321
REMARK  111  A    between atoms: _321  and  _322
REMARK  112  A    between atoms: _327  and  _328
REMARK  113  A    between atoms: _336  and  _338
REMARK  114  A    between atoms: _338  and  _339
REMARK  115  A    between atoms: _338  and  _341
REMARK  116  A    between atoms: _341  and  _342
REMARK  117  A    between atoms: _345  and  _347
REMARK  118  A    between atoms: _347  and  _348
REMARK  119  A    between atoms: _347  and  _350
REMARK  120  A    between atoms: _351  and  _352
REMARK  121  A    between atoms: _357  and  _359
REMARK  122  A    between atoms: _359  and  _360
REMARK  123  A    between atoms: _359  and  _362
REMARK  124  A    between atoms: _362  and  _363
REMARK  125  A    between atoms: _368  and  _369
REMARK  126  A    between atoms: _371  and  _373
REMARK  127  A    between atoms: _373  and  _374
REMARK  128  A    between atoms: _373  and  _376
REMARK  129  A    between atoms: _378  and  _380
REMARK  130  A    between atoms: _380  and  _381
REMARK  131  A    between atoms: _380  and  _383
REMARK  132  A    between atoms: _383  and  _384
REMARK  133  A    between atoms: _387  and  _389
REMARK  134  A    between atoms: _389  and  _390
REMARK  135  A    between atoms: _389  and  _392
REMARK  136  A    between atoms: _392  and  _393
REMARK  137  A    between atoms: _393  and  _394
REMARK                            x       y       z     vdW  Elec       q    Type
REMARK                         _______ _______ _______ _____ _____    ______ ____
ROOT
ATOM      1  CA  CYS A   1       9.032  11.452  31.794  0.00  0.00    +0.145 C 
ENDROOT
BRANCH   1   2
ATOM      2  N   CYS A   1       7.924  11.225  30.886  0.00  0.00    -0.238 NA
ATOM      3  H   CYS A   1       7.734  10.254  30.567  0.00  0.00    +0.142 HD
ENDBRANCH   1   2
BRANCH   1   4
ATOM      4  CB  CYS A   1       9.279  10.252  32.669  0.00  0.00    +0.094 C 
ATOM      5  SG  CYS A   1      10.659  10.388  33.810  0.00  0.00    -0.080 S 
ENDBRANCH   1   4
BRANCH   1   6
ATOM      6  C   CYS A   1      10.304  11.964  31.120  0.00  0.00    +0.225 C 
ATOM      7  O   CYS A   1      10.828  11.346  30.206  0.00  0.00    -0.287 OA
ENDBRANCH   1   6
TORSDOF 3
REMARK  Name = ../refined-set-2016/3pcf/3pcf_pocket.pdb
REMARK  137 active torsions:
REMARK  status: ('A' for Active; 'I' for Inactive)
REMARK    1  A    between atoms: _1  and  _3
REMARK    2  A    between atoms: _3  and  _4
REMARK    3  A    between atoms: _3  and  _6
REMARK    4  A    between atoms: _6  and  _7
REMARK    5  A    between atoms: _7  and  _8
REMARK    6  A    between atoms: _13  and  _15
REMARK    7  A    between atoms: _15  and  _16
REMARK    8  A    between atoms: _15  and  _18
REMARK    9  A    between atoms: _18  and  _19
REMARK   10  A    between atoms: _22  and  _24
REMARK   11  A    between atoms: _24  and  _25
REMARK   12  A    between atoms: _28  and  _30
REMARK   13  A    between atoms: _30  and  _31
REMARK   14  A    between atoms: _34  and  _35
REMARK   15  A    between atoms: _40  and  _42
REMARK   16  A    between atoms: _42  and  _43
REMARK   17  A    between atoms: _42  and  _45
REMARK   18  A    between atoms: _45  and  _46
REMARK   19  A    between atoms: _51  and  _52
REMARK   20  A    between atoms: _54  and  _56
REMARK   21  A    between atoms: _56  and  _57
REMARK   22  A    between atoms: _56  and  _59
REMARK   23  A    between atoms: _62  and  _64
REMARK   24  A    between atoms: _64  and  _65
REMARK   25  A    between atoms: _64  and  _67
REMARK   26  A    between atoms: _67  and  _68
REMARK   27  A    between atoms: _71  and  _73
REMARK   28  A    between atoms: _73  and  _74
REMARK   29  A    between atoms: _77  and  _79
REMARK   30  A    between atoms: _79  and  _80
REMARK   31  A    between atoms: _79  and  _82
REMARK   32  A    between atoms: _82  and  _83
REMARK   33  A    between atoms: _83  and  _84
REMARK   34  A    between atoms: _84  and  _85
REMARK   35  A    between atoms: _94  and  _96
REMARK   36  A    between atoms: _96  and  _97
REMARK   37  A    between atoms: _99  and  _101
REMARK   38  A    between atoms: _101  and  _102
REMARK   39  A    between atoms: _101  and  _104
REMARK   40  A    between atoms: _104  and  _105
REMARK   41  A    between atoms: _108  and  _110
REMARK   42  A    between atoms: _110  and  _111
REMARK   43  A    between atoms: _110  and  _113
REMARK   44  A    between atoms: _113  and  _114
REMARK   45  A    between atoms: _119  and  _121
REMARK   46  A    between atoms: _121  and  _122
REMARK   47  A    between atoms: _121  and  _124
REMARK   48  A    between atoms: _124  and  _125
REMARK   49  A    between atoms: _130  and  _131
REMARK   50  A    between atoms: _133  and  _135
REMARK   51  A    between atoms: _135  and  _136
REMARK   52  A    between atoms: _135  and  _138
REMARK   53  A    between atoms: _138  and  _139
REMARK   54  A    between atoms: _139  and  _140
REMARK   55  A    between atoms: _140  and  _141
REMARK   56  A    between atoms: _141  and  _142
REMARK   57  A    between atoms: _146  and  _148
REMARK   58  A    between atoms: _148  and  _149
REMARK   59  A    between atoms: _148  and  _151
REMARK   60  A    between atoms: _151  and  _152
REMARK   61  A    between atoms: _155  and  _157
REMARK   62  A    between atoms: _157  and  _158
REMARK   63  A    between atoms: _157  and  _160
REMARK   64  A    between atoms: _160  and  _161
REMARK   65  A    between atoms: _163  and  _165
REMARK   66  A    between atoms: _165  and  _166
REMARK   67  A    between atoms: _165  and  _168
REMARK   68  A    between atoms: _168  and  _169
REMARK   69  A    between atoms: _169  and  _170
REMARK   70  A    between atoms: _170  and  _171
REMARK   71  A    between atoms: _180  and  _182
REMARK   72  A    between atoms: _182  and  _183
REMARK   73  A    between atoms: _182  and  _185
REMARK   74  A    between atoms: _185  and  _186
REMARK   75  A    between atoms: _196  and  _198
REMARK   76  A    between atoms: _198  and  _199
REMARK   77  A    between atoms: _202  and  _204
REMARK   78  A    between atoms: _204  and  _205
REMARK   79  A    between atoms: _204  and  _207
REMARK   80  A    between atoms: _207  and  _208
REMARK   81  A    between atoms: _213  and  _214
REMARK   82  A    between atoms: _216  and  _218
REMARK   83  A    between atoms: _218  and  _219
REMARK   84  A    between atoms: _218  and  _221
REMARK   85  A    between atoms: _221  and  _222
REMARK   86  A    between atoms: _227  and  _228
REMARK   87  A    between atoms: _231  and  _232
REMARK   88  A    between atoms: _237  and  _239
REMARK   89  A    between atoms: _239  and  _240
REMARK   90  A    between atoms: _239  and  _242
REMARK   91  A    between atoms: _242  and  _243
REMARK   92  A    between atoms: _253  and  _255
REMARK   93  A    between atoms: _255  and  _256
REMARK   94  A    between atoms: _255  and  _258
REMARK   95  A    between atoms: _258  and  _259
REMARK   96  A    between atoms: _259  and  _260
REMARK   97  A    between atoms: _260  and  _261
REMARK   98  A    between atoms: _270  and  _272
REMARK   99  A    between atoms: _272  and  _273
REMARK  100  A    between atoms: _272  and  _275
REMARK  101  A    between atoms: _275  and  _276
REMARK  102  A    between atoms: _281  and  _283
REMARK  103  A    between atoms: _283  and  _284
REMARK  104  A    between atoms: _283  and  _286
REMARK  105  A    between atoms: _286  and  _287
REMARK  106  A    between atoms: _287  and  _288
REMARK  107  A    between atoms: _288  and  _289
REMARK  108  A    between atoms: _299  and  _300
REMARK  109  A    between atoms: _305  and  _307
REMARK  110  A    between atoms: _318  and  _321
REMARK  111  A    between atoms: _321  and  _322
REMARK  112  A    between atoms: _327  and  _328
REMARK  113  A    between atoms: _336  and  _338
REMARK  114  A    between atoms: _338  and  _339
REMARK  115  A    between atoms: _338  and  _341
REMARK  116  A    between atoms: _341  and  _342
REMARK  117  A    between atoms: _345  and  _347
REMARK  118  A    between atoms: _347  and  _348
REMARK  119  A    between atoms: _347  and  _350
REMARK  120  A    between atoms: _351  and  _352
REMARK  121  A    between atoms: _357  and  _359
REMARK  122  A    between atoms: _359  and  _360
REMARK  123  A    between atoms: _359  and  _362
REMARK  124  A    between atoms: _362  and  _363
REMARK  125  A    between atoms: _368  and  _369
REMARK  126  A    between atoms: _371  and  _373
REMARK  127  A    between atoms: _373  and  _374
REMARK  128  A    between atoms: _373  and  _376
REMARK  129  A    between atoms: _378  and  _380
REMARK  130  A    between atoms: _380  and  _381
REMARK  131  A    between atoms: _380  and  _383
REMARK  132  A    between atoms: _383  and  _384
REMARK  133  A    between atoms: _387  and  _389
REMARK  134  A    between atoms: _389  and  _390
REMARK  135  A    between atoms: _389  and  _392
REMARK  136  A    between atoms: _392  and  _393
REMARK  137  A    between atoms: _393  and  _394
REMARK                            x       y       z     vdW  Elec       q    Type
REMARK                         _______ _______ _______ _____ _____    ______ ____
ROOT
ATOM      1  CA  ILE A   1      14.344  11.272  32.790  0.00  0.00    +0.133 C 
ENDROOT
BRANCH   1   2
ATOM      2  N   ILE A   1      13.191  12.166  32.479  0.00  0.00    -0.239 NA
ATOM      3  H   ILE A   1      12.348  12.128  33.086  0.00  0.00    +0.142 HD
ENDBRANCH   1   2
BRANCH   1   4
ATOM      4  CB  ILE A   1      14.354  10.792  34.258  0.00  0.00    +0.023 C 
ATOM      5  CG2 ILE A   1      15.205   9.559  34.538  0.00  0.00    +0.002 C 
BRANCH   4   6
ATOM      6  CG1 ILE A   1      14.740  12.006  35.188  0.00  0.00    +0.002 C 
ATOM      7  CD1 ILE A   1      14.788  11.602  36.696  0.00  0.00    +0.000 C 
ENDBRANCH   4   6
ENDBRANCH   1   4
BRANCH   1   8
ATOM      8  C   ILE A   1      14.373  10.134  31.793  0.00  0.00    +0.224 C 
ATOM      9  O   ILE A   1      15.399   9.668  31.256  0.00  0.00    -0.287 OA
ENDBRANCH   1   8
TORSDOF 4
REMARK  Name = ../refined-set-2016/3pcf/3pcf_pocket.pdb
REMARK  137 active torsions:
REMARK  status: ('A' for Active; 'I' for Inactive)
REMARK    1  A    between atoms: _1  and  _3
REMARK    2  A    between atoms: _3  and  _4
REMARK    3  A    between atoms: _3  and  _6
REMARK    4  A    between atoms: _6  and  _7
REMARK    5  A    between atoms: _7  and  _8
REMARK    6  A    between atoms: _13  and  _15
REMARK    7  A    between atoms: _15  and  _16
REMARK    8  A    between atoms: _15  and  _18
REMARK    9  A    between atoms: _18  and  _19
REMARK   10  A    between atoms: _22  and  _24
REMARK   11  A    between atoms: _24  and  _25
REMARK   12  A    between atoms: _28  and  _30
REMARK   13  A    between atoms: _30  and  _31
REMARK   14  A    between atoms: _34  and  _35
REMARK   15  A    between atoms: _40  and  _42
REMARK   16  A    between atoms: _42  and  _43
REMARK   17  A    between atoms: _42  and  _45
REMARK   18  A    between atoms: _45  and  _46
REMARK   19  A    between atoms: _51  and  _52
REMARK   20  A    between atoms: _54  and  _56
REMARK   21  A    between atoms: _56  and  _57
REMARK   22  A    between atoms: _56  and  _59
REMARK   23  A    between atoms: _62  and  _64
REMARK   24  A    between atoms: _64  and  _65
REMARK   25  A    between atoms: _64  and  _67
REMARK   26  A    between atoms: _67  and  _68
REMARK   27  A    between atoms: _71  and  _73
REMARK   28  A    between atoms: _73  and  _74
REMARK   29  A    between atoms: _77  and  _79
REMARK   30  A    between atoms: _79  and  _80
REMARK   31  A    between atoms: _79  and  _82
REMARK   32  A    between atoms: _82  and  _83
REMARK   33  A    between atoms: _83  and  _84
REMARK   34  A    between atoms: _84  and  _85
REMARK   35  A    between atoms: _94  and  _96
REMARK   36  A    between atoms: _96  and  _97
REMARK   37  A    between atoms: _99  and  _101
REMARK   38  A    between atoms: _101  and  _102
REMARK   39  A    between atoms: _101  and  _104
REMARK   40  A    between atoms: _104  and  _105
REMARK   41  A    between atoms: _108  and  _110
REMARK   42  A    between atoms: _110  and  _111
REMARK   43  A    between atoms: _110  and  _113
REMARK   44  A    between atoms: _113  and  _114
REMARK   45  A    between atoms: _119  and  _121
REMARK   46  A    between atoms: _121  and  _122
REMARK   47  A    between atoms: _121  and  _124
REMARK   48  A    between atoms: _124  and  _125
REMARK   49  A    between atoms: _130  and  _131
REMARK   50  A    between atoms: _133  and  _135
REMARK   51  A    between atoms: _135  and  _136
REMARK   52  A    between atoms: _135  and  _138
REMARK   53  A    between atoms: _138  and  _139
REMARK   54  A    between atoms: _139  and  _140
REMARK   55  A    between atoms: _140  and  _141
REMARK   56  A    between atoms: _141  and  _142
REMARK   57  A    between atoms: _146  and  _148
REMARK   58  A    between atoms: _148  and  _149
REMARK   59  A    between atoms: _148  and  _151
REMARK   60  A    between atoms: _151  and  _152
REMARK   61  A    between atoms: _155  and  _157
REMARK   62  A    between atoms: _157  and  _158
REMARK   63  A    between atoms: _157  and  _160
REMARK   64  A    between atoms: _160  and  _161
REMARK   65  A    between atoms: _163  and  _165
REMARK   66  A    between atoms: _165  and  _166
REMARK   67  A    between atoms: _165  and  _168
REMARK   68  A    between atoms: _168  and  _169
REMARK   69  A    between atoms: _169  and  _170
REMARK   70  A    between atoms: _170  and  _171
REMARK   71  A    between atoms: _180  and  _182
REMARK   72  A    between atoms: _182  and  _183
REMARK   73  A    between atoms: _182  and  _185
REMARK   74  A    between atoms: _185  and  _186
REMARK   75  A    between atoms: _196  and  _198
REMARK   76  A    between atoms: _198  and  _199
REMARK   77  A    between atoms: _202  and  _204
REMARK   78  A    between atoms: _204  and  _205
REMARK   79  A    between atoms: _204  and  _207
REMARK   80  A    between atoms: _207  and  _208
REMARK   81  A    between atoms: _213  and  _214
REMARK   82  A    between atoms: _216  and  _218
REMARK   83  A    between atoms: _218  and  _219
REMARK   84  A    between atoms: _218  and  _221
REMARK   85  A    between atoms: _221  and  _222
REMARK   86  A    between atoms: _227  and  _228
REMARK   87  A    between atoms: _231  and  _232
REMARK   88  A    between atoms: _237  and  _239
REMARK   89  A    between atoms: _239  and  _240
REMARK   90  A    between atoms: _239  and  _242
REMARK   91  A    between atoms: _242  and  _243
REMARK   92  A    between atoms: _253  and  _255
REMARK   93  A    between atoms: _255  and  _256
REMARK   94  A    between atoms: _255  and  _258
REMARK   95  A    between atoms: _258  and  _259
REMARK   96  A    between atoms: _259  and  _260
REMARK   97  A    between atoms: _260  and  _261
REMARK   98  A    between atoms: _270  and  _272
REMARK   99  A    between atoms: _272  and  _273
REMARK  100  A    between atoms: _272  and  _275
REMARK  101  A    between atoms: _275  and  _276
REMARK  102  A    between atoms: _281  and  _283
REMARK  103  A    between atoms: _283  and  _284
REMARK  104  A    between atoms: _283  and  _286
REMARK  105  A    between atoms: _286  and  _287
REMARK  106  A    between atoms: _287  and  _288
REMARK  107  A    between atoms: _288  and  _289
REMARK  108  A    between atoms: _299  and  _300
REMARK  109  A    between atoms: _305  and  _307
REMARK  110  A    between atoms: _318  and  _321
REMARK  111  A    between atoms: _321  and  _322
REMARK  112  A    between atoms: _327  and  _328
REMARK  113  A    between atoms: _336  and  _338
REMARK  114  A    between atoms: _338  and  _339
REMARK  115  A    between atoms: _338  and  _341
REMARK  116  A    between atoms: _341  and  _342
REMARK  117  A    between atoms: _345  and  _347
REMARK  118  A    between atoms: _347  and  _348
REMARK  119  A    between atoms: _347  and  _350
REMARK  120  A    between atoms: _351  and  _352
REMARK  121  A    between atoms: _357  and  _359
REMARK  122  A    between atoms: _359  and  _360
REMARK  123  A    between atoms: _359  and  _362
REMARK  124  A    between atoms: _362  and  _363
REMARK  125  A    between atoms: _368  and  _369
REMARK  126  A    between atoms: _371  and  _373
REMARK  127  A    between atoms: _373  and  _374
REMARK  128  A    between atoms: _373  and  _376
REMARK  129  A    between atoms: _378  and  _380
REMARK  130  A    between atoms: _380  and  _381
REMARK  131  A    between atoms: _380  and  _383
REMARK  132  A    between atoms: _383  and  _384
REMARK  133  A    between atoms: _387  and  _389
REMARK  134  A    between atoms: _389  and  _390
REMARK  135  A    between atoms: _389  and  _392
REMARK  136  A    between atoms: _392  and  _393
REMARK  137  A    between atoms: _393  and  _394
REMARK                            x       y       z     vdW  Elec       q    Type
REMARK                         _______ _______ _______ _____ _____    ______ ____
ROOT
ATOM      1  CA  GLU A   1      17.375  25.184  45.963  0.00  0.00    +0.134 C 
ENDROOT
BRANCH   1   2
ATOM      2  N   GLU A   1      16.398  26.078  45.367  0.00  0.00    -0.239 NA
ATOM      3  H   GLU A   1      16.080  25.866  44.400  0.00  0.00    +0.142 HD
ENDBRANCH   1   2
BRANCH   1   4
ATOM      4  C   GLU A   1      18.592  25.915  46.536  0.00  0.00    +0.224 C 
ATOM      5  O   GLU A   1      18.908  25.679  47.704  0.00  0.00    -0.287 OA
ENDBRANCH   1   4
BRANCH   1   6
ATOM      6  CB  GLU A   1      17.966  24.129  45.062  0.00  0.00    +0.037 C 
BRANCH   6   7
ATOM      7  CG  GLU A   1      17.265  22.893  44.636  0.00  0.00    +0.116 C 
BRANCH   7   8
ATOM      8  CD  GLU A   1      18.040  21.606  44.575  0.00  0.00    +0.365 C 
ATOM      9  OE2 GLU A   1      18.896  21.232  45.366  0.00  0.00    -0.246 OA
ATOM     10  OE1 GLU A   1      17.639  20.895  43.601  0.00  0.00    -0.246 OA
ENDBRANCH   7   8
ENDBRANCH   6   7
ENDBRANCH   1   6
TORSDOF 5
REMARK  Name = ../refined-set-2016/3pcf/3pcf_pocket.pdb
REMARK  137 active torsions:
REMARK  status: ('A' for Active; 'I' for Inactive)
REMARK    1  A    between atoms: _1  and  _3
REMARK    2  A    between atoms: _3  and  _4
REMARK    3  A    between atoms: _3  and  _6
REMARK    4  A    between atoms: _6  and  _7
REMARK    5  A    between atoms: _7  and  _8
REMARK    6  A    between atoms: _13  and  _15
REMARK    7  A    between atoms: _15  and  _16
REMARK    8  A    between atoms: _15  and  _18
REMARK    9  A    between atoms: _18  and  _19
REMARK   10  A    between atoms: _22  and  _24
REMARK   11  A    between atoms: _24  and  _25
REMARK   12  A    between atoms: _28  and  _30
REMARK   13  A    between atoms: _30  and  _31
REMARK   14  A    between atoms: _34  and  _35
REMARK   15  A    between atoms: _40  and  _42
REMARK   16  A    between atoms: _42  and  _43
REMARK   17  A    between atoms: _42  and  _45
REMARK   18  A    between atoms: _45  and  _46
REMARK   19  A    between atoms: _51  and  _52
REMARK   20  A    between atoms: _54  and  _56
REMARK   21  A    between atoms: _56  and  _57
REMARK   22  A    between atoms: _56  and  _59
REMARK   23  A    between atoms: _62  and  _64
REMARK   24  A    between atoms: _64  and  _65
REMARK   25  A    between atoms: _64  and  _67
REMARK   26  A    between atoms: _67  and  _68
REMARK   27  A    between atoms: _71  and  _73
REMARK   28  A    between atoms: _73  and  _74
REMARK   29  A    between atoms: _77  and  _79
REMARK   30  A    between atoms: _79  and  _80
REMARK   31  A    between atoms: _79  and  _82
REMARK   32  A    between atoms: _82  and  _83
REMARK   33  A    between atoms: _83  and  _84
REMARK   34  A    between atoms: _84  and  _85
REMARK   35  A    between atoms: _94  and  _96
REMARK   36  A    between atoms: _96  and  _97
REMARK   37  A    between atoms: _99  and  _101
REMARK   38  A    between atoms: _101  and  _102
REMARK   39  A    between atoms: _101  and  _104
REMARK   40  A    between atoms: _104  and  _105
REMARK   41  A    between atoms: _108  and  _110
REMARK   42  A    between atoms: _110  and  _111
REMARK   43  A    between atoms: _110  and  _113
REMARK   44  A    between atoms: _113  and  _114
REMARK   45  A    between atoms: _119  and  _121
REMARK   46  A    between atoms: _121  and  _122
REMARK   47  A    between atoms: _121  and  _124
REMARK   48  A    between atoms: _124  and  _125
REMARK   49  A    between atoms: _130  and  _131
REMARK   50  A    between atoms: _133  and  _135
REMARK   51  A    between atoms: _135  and  _136
REMARK   52  A    between atoms: _135  and  _138
REMARK   53  A    between atoms: _138  and  _139
REMARK   54  A    between atoms: _139  and  _140
REMARK   55  A    between atoms: _140  and  _141
REMARK   56  A    between atoms: _141  and  _142
REMARK   57  A    between atoms: _146  and  _148
REMARK   58  A    between atoms: _148  and  _149
REMARK   59  A    between atoms: _148  and  _151
REMARK   60  A    between atoms: _151  and  _152
REMARK   61  A    between atoms: _155  and  _157
REMARK   62  A    between atoms: _157  and  _158
REMARK   63  A    between atoms: _157  and  _160
REMARK   64  A    between atoms: _160  and  _161
REMARK   65  A    between atoms: _163  and  _165
REMARK   66  A    between atoms: _165  and  _166
REMARK   67  A    between atoms: _165  and  _168
REMARK   68  A    between atoms: _168  and  _169
REMARK   69  A    between atoms: _169  and  _170
REMARK   70  A    between atoms: _170  and  _171
REMARK   71  A    between atoms: _180  and  _182
REMARK   72  A    between atoms: _182  and  _183
REMARK   73  A    between atoms: _182  and  _185
REMARK   74  A    between atoms: _185  and  _186
REMARK   75  A    between atoms: _196  and  _198
REMARK   76  A    between atoms: _198  and  _199
REMARK   77  A    between atoms: _202  and  _204
REMARK   78  A    between atoms: _204  and  _205
REMARK   79  A    between atoms: _204  and  _207
REMARK   80  A    between atoms: _207  and  _208
REMARK   81  A    between atoms: _213  and  _214
REMARK   82  A    between atoms: _216  and  _218
REMARK   83  A    between atoms: _218  and  _219
REMARK   84  A    between atoms: _218  and  _221
REMARK   85  A    between atoms: _221  and  _222
REMARK   86  A    between atoms: _227  and  _228
REMARK   87  A    between atoms: _231  and  _232
REMARK   88  A    between atoms: _237  and  _239
REMARK   89  A    between atoms: _239  and  _240
REMARK   90  A    between atoms: _239  and  _242
REMARK   91  A    between atoms: _242  and  _243
REMARK   92  A    between atoms: _253  and  _255
REMARK   93  A    between atoms: _255  and  _256
REMARK   94  A    between atoms: _255  and  _258
REMARK   95  A    between atoms: _258  and  _259
REMARK   96  A    between atoms: _259  and  _260
REMARK   97  A    between atoms: _260  and  _261
REMARK   98  A    between atoms: _270  and  _272
REMARK   99  A    between atoms: _272  and  _273
REMARK  100  A    between atoms: _272  and  _275
REMARK  101  A    between atoms: _275  and  _276
REMARK  102  A    between atoms: _281  and  _283
REMARK  103  A    between atoms: _283  and  _284
REMARK  104  A    between atoms: _283  and  _286
REMARK  105  A    between atoms: _286  and  _287
REMARK  106  A    between atoms: _287  and  _288
REMARK  107  A    between atoms: _288  and  _289
REMARK  108  A    between atoms: _299  and  _300
REMARK  109  A    between atoms: _305  and  _307
REMARK  110  A    between atoms: _318  and  _321
REMARK  111  A    between atoms: _321  and  _322
REMARK  112  A    between atoms: _327  and  _328
REMARK  113  A    between atoms: _336  and  _338
REMARK  114  A    between atoms: _338  and  _339
REMARK  115  A    between atoms: _338  and  _341
REMARK  116  A    between atoms: _341  and  _342
REMARK  117  A    between atoms: _345  and  _347
REMARK  118  A    between atoms: _347  and  _348
REMARK  119  A    between atoms: _347  and  _350
REMARK  120  A    between atoms: _351  and  _352
REMARK  121  A    between atoms: _357  and  _359
REMARK  122  A    between atoms: _359  and  _360
REMARK  123  A    between atoms: _359  and  _362
REMARK  124  A    between atoms: _362  and  _363
REMARK  125  A    between atoms: _368  and  _369
REMARK  126  A    between atoms: _371  and  _373
REMARK  127  A    between atoms: _373  and  _374
REMARK  128  A    between atoms: _373  and  _376
REMARK  129  A    between atoms: _378  and  _380
REMARK  130  A    between atoms: _380  and  _381
REMARK  131  A    between atoms: _380  and  _383
REMARK  132  A    between atoms: _383  and  _384
REMARK  133  A    between atoms: _387  and  _389
REMARK  134  A    between atoms: _389  and  _390
REMARK  135  A    between atoms: _389  and  _392
REMARK  136  A    between atoms: _392  and  _393
REMARK  137  A    between atoms: _393  and  _394
REMARK                            x       y       z     vdW  Elec       q    Type
REMARK                         _______ _______ _______ _____ _____    ______ ____
ROOT
ATOM      1  O   HOH     1      18.750   4.637  39.068  0.00  0.00    +0.000 OA
ENDROOT
TORSDOF 0
REMARK  Name = ../refined-set-2016/3pcf/3pcf_pocket.pdb
REMARK  137 active torsions:
REMARK  status: ('A' for Active; 'I' for Inactive)
REMARK    1  A    between atoms: _1  and  _3
REMARK    2  A    between atoms: _3  and  _4
REMARK    3  A    between atoms: _3  and  _6
REMARK    4  A    between atoms: _6  and  _7
REMARK    5  A    between atoms: _7  and  _8
REMARK    6  A    between atoms: _13  and  _15
REMARK    7  A    between atoms: _15  and  _16
REMARK    8  A    between atoms: _15  and  _18
REMARK    9  A    between atoms: _18  and  _19
REMARK   10  A    between atoms: _22  and  _24
REMARK   11  A    between atoms: _24  and  _25
REMARK   12  A    between atoms: _28  and  _30
REMARK   13  A    between atoms: _30  and  _31
REMARK   14  A    between atoms: _34  and  _35
REMARK   15  A    between atoms: _40  and  _42
REMARK   16  A    between atoms: _42  and  _43
REMARK   17  A    between atoms: _42  and  _45
REMARK   18  A    between atoms: _45  and  _46
REMARK   19  A    between atoms: _51  and  _52
REMARK   20  A    between atoms: _54  and  _56
REMARK   21  A    between atoms: _56  and  _57
REMARK   22  A    between atoms: _56  and  _59
REMARK   23  A    between atoms: _62  and  _64
REMARK   24  A    between atoms: _64  and  _65
REMARK   25  A    between atoms: _64  and  _67
REMARK   26  A    between atoms: _67  and  _68
REMARK   27  A    between atoms: _71  and  _73
REMARK   28  A    between atoms: _73  and  _74
REMARK   29  A    between atoms: _77  and  _79
REMARK   30  A    between atoms: _79  and  _80
REMARK   31  A    between atoms: _79  and  _82
REMARK   32  A    between atoms: _82  and  _83
REMARK   33  A    between atoms: _83  and  _84
REMARK   34  A    between atoms: _84  and  _85
REMARK   35  A    between atoms: _94  and  _96
REMARK   36  A    between atoms: _96  and  _97
REMARK   37  A    between atoms: _99  and  _101
REMARK   38  A    between atoms: _101  and  _102
REMARK   39  A    between atoms: _101  and  _104
REMARK   40  A    between atoms: _104  and  _105
REMARK   41  A    between atoms: _108  and  _110
REMARK   42  A    between atoms: _110  and  _111
REMARK   43  A    between atoms: _110  and  _113
REMARK   44  A    between atoms: _113  and  _114
REMARK   45  A    between atoms: _119  and  _121
REMARK   46  A    between atoms: _121  and  _122
REMARK   47  A    between atoms: _121  and  _124
REMARK   48  A    between atoms: _124  and  _125
REMARK   49  A    between atoms: _130  and  _131
REMARK   50  A    between atoms: _133  and  _135
REMARK   51  A    between atoms: _135  and  _136
REMARK   52  A    between atoms: _135  and  _138
REMARK   53  A    between atoms: _138  and  _139
REMARK   54  A    between atoms: _139  and  _140
REMARK   55  A    between atoms: _140  and  _141
REMARK   56  A    between atoms: _141  and  _142
REMARK   57  A    between atoms: _146  and  _148
REMARK   58  A    between atoms: _148  and  _149
REMARK   59  A    between atoms: _148  and  _151
REMARK   60  A    between atoms: _151  and  _152
REMARK   61  A    between atoms: _155  and  _157
REMARK   62  A    between atoms: _157  and  _158
REMARK   63  A    between atoms: _157  and  _160
REMARK   64  A    between atoms: _160  and  _161
REMARK   65  A    between atoms: _163  and  _165
REMARK   66  A    between atoms: _165  and  _166
REMARK   67  A    between atoms: _165  and  _168
REMARK   68  A    between atoms: _168  and  _169
REMARK   69  A    between atoms: _169  and  _170
REMARK   70  A    between atoms: _170  and  _171
REMARK   71  A    between atoms: _180  and  _182
REMARK   72  A    between atoms: _182  and  _183
REMARK   73  A    between atoms: _182  and  _185
REMARK   74  A    between atoms: _185  and  _186
REMARK   75  A    between atoms: _196  and  _198
REMARK   76  A    between atoms: _198  and  _199
REMARK   77  A    between atoms: _202  and  _204
REMARK   78  A    between atoms: _204  and  _205
REMARK   79  A    between atoms: _204  and  _207
REMARK   80  A    between atoms: _207  and  _208
REMARK   81  A    between atoms: _213  and  _214
REMARK   82  A    between atoms: _216  and  _218
REMARK   83  A    between atoms: _218  and  _219
REMARK   84  A    between atoms: _218  and  _221
REMARK   85  A    between atoms: _221  and  _222
REMARK   86  A    between atoms: _227  and  _228
REMARK   87  A    between atoms: _231  and  _232
REMARK   88  A    between atoms: _237  and  _239
REMARK   89  A    between atoms: _239  and  _240
REMARK   90  A    between atoms: _239  and  _242
REMARK   91  A    between atoms: _242  and  _243
REMARK   92  A    between atoms: _253  and  _255
REMARK   93  A    between atoms: _255  and  _256
REMARK   94  A    between atoms: _255  and  _258
REMARK   95  A    between atoms: _258  and  _259
REMARK   96  A    between atoms: _259  and  _260
REMARK   97  A    between atoms: _260  and  _261
REMARK   98  A    between atoms: _270  and  _272
REMARK   99  A    between atoms: _272  and  _273
REMARK  100  A    between atoms: _272  and  _275
REMARK  101  A    between atoms: _275  and  _276
REMARK  102  A    between atoms: _281  and  _283
REMARK  103  A    between atoms: _283  and  _284
REMARK  104  A    between atoms: _283  and  _286
REMARK  105  A    between atoms: _286  and  _287
REMARK  106  A    between atoms: _287  and  _288
REMARK  107  A    between atoms: _288  and  _289
REMARK  108  A    between atoms: _299  and  _300
REMARK  109  A    between atoms: _305  and  _307
REMARK  110  A    between atoms: _318  and  _321
REMARK  111  A    between atoms: _321  and  _322
REMARK  112  A    between atoms: _327  and  _328
REMARK  113  A    between atoms: _336  and  _338
REMARK  114  A    between atoms: _338  and  _339
REMARK  115  A    between atoms: _338  and  _341
REMARK  116  A    between atoms: _341  and  _342
REMARK  117  A    between atoms: _345  and  _347
REMARK  118  A    between atoms: _347  and  _348
REMARK  119  A    between atoms: _347  and  _350
REMARK  120  A    between atoms: _351  and  _352
REMARK  121  A    between atoms: _357  and  _359
REMARK  122  A    between atoms: _359  and  _360
REMARK  123  A    between atoms: _359  and  _362
REMARK  124  A    between atoms: _362  and  _363
REMARK  125  A    between atoms: _368  and  _369
REMARK  126  A    between atoms: _371  and  _373
REMARK  127  A    between atoms: _373  and  _374
REMARK  128  A    between atoms: _373  and  _376
REMARK  129  A    between atoms: _378  and  _380
REMARK  130  A    between atoms: _380  and  _381
REMARK  131  A    between atoms: _380  and  _383
REMARK  132  A    between atoms: _383  and  _384
REMARK  133  A    between atoms: _387  and  _389
REMARK  134  A    between atoms: _389  and  _390
REMARK  135  A    between atoms: _389  and  _392
REMARK  136  A    between atoms: _392  and  _393
REMARK  137  A    between atoms: _393  and  _394
REMARK                            x       y       z     vdW  Elec       q    Type
REMARK                         _______ _______ _______ _____ _____    ______ ____
ROOT
ATOM      1  O   HOH     1      17.291   7.266  43.827  0.00  0.00    +0.000 OA
ENDROOT
TORSDOF 0
REMARK  Name = ../refined-set-2016/3pcf/3pcf_pocket.pdb
REMARK  137 active torsions:
REMARK  status: ('A' for Active; 'I' for Inactive)
REMARK    1  A    between atoms: _1  and  _3
REMARK    2  A    between atoms: _3  and  _4
REMARK    3  A    between atoms: _3  and  _6
REMARK    4  A    between atoms: _6  and  _7
REMARK    5  A    between atoms: _7  and  _8
REMARK    6  A    between atoms: _13  and  _15
REMARK    7  A    between atoms: _15  and  _16
REMARK    8  A    between atoms: _15  and  _18
REMARK    9  A    between atoms: _18  and  _19
REMARK   10  A    between atoms: _22  and  _24
REMARK   11  A    between atoms: _24  and  _25
REMARK   12  A    between atoms: _28  and  _30
REMARK   13  A    between atoms: _30  and  _31
REMARK   14  A    between atoms: _34  and  _35
REMARK   15  A    between atoms: _40  and  _42
REMARK   16  A    between atoms: _42  and  _43
REMARK   17  A    between atoms: _42  and  _45
REMARK   18  A    between atoms: _45  and  _46
REMARK   19  A    between atoms: _51  and  _52
REMARK   20  A    between atoms: _54  and  _56
REMARK   21  A    between atoms: _56  and  _57
REMARK   22  A    between atoms: _56  and  _59
REMARK   23  A    between atoms: _62  and  _64
REMARK   24  A    between atoms: _64  and  _65
REMARK   25  A    between atoms: _64  and  _67
REMARK   26  A    between atoms: _67  and  _68
REMARK   27  A    between atoms: _71  and  _73
REMARK   28  A    between atoms: _73  and  _74
REMARK   29  A    between atoms: _77  and  _79
REMARK   30  A    between atoms: _79  and  _80
REMARK   31  A    between atoms: _79  and  _82
REMARK   32  A    between atoms: _82  and  _83
REMARK   33  A    between atoms: _83  and  _84
REMARK   34  A    between atoms: _84  and  _85
REMARK   35  A    between atoms: _94  and  _96
REMARK   36  A    between atoms: _96  and  _97
REMARK   37  A    between atoms: _99  and  _101
REMARK   38  A    between atoms: _101  and  _102
REMARK   39  A    between atoms: _101  and  _104
REMARK   40  A    between atoms: _104  and  _105
REMARK   41  A    between atoms: _108  and  _110
REMARK   42  A    between atoms: _110  and  _111
REMARK   43  A    between atoms: _110  and  _113
REMARK   44  A    between atoms: _113  and  _114
REMARK   45  A    between atoms: _119  and  _121
REMARK   46  A    between atoms: _121  and  _122
REMARK   47  A    between atoms: _121  and  _124
REMARK   48  A    between atoms: _124  and  _125
REMARK   49  A    between atoms: _130  and  _131
REMARK   50  A    between atoms: _133  and  _135
REMARK   51  A    between atoms: _135  and  _136
REMARK   52  A    between atoms: _135  and  _138
REMARK   53  A    between atoms: _138  and  _139
REMARK   54  A    between atoms: _139  and  _140
REMARK   55  A    between atoms: _140  and  _141
REMARK   56  A    between atoms: _141  and  _142
REMARK   57  A    between atoms: _146  and  _148
REMARK   58  A    between atoms: _148  and  _149
REMARK   59  A    between atoms: _148  and  _151
REMARK   60  A    between atoms: _151  and  _152
REMARK   61  A    between atoms: _155  and  _157
REMARK   62  A    between atoms: _157  and  _158
REMARK   63  A    between atoms: _157  and  _160
REMARK   64  A    between atoms: _160  and  _161
REMARK   65  A    between atoms: _163  and  _165
REMARK   66  A    between atoms: _165  and  _166
REMARK   67  A    between atoms: _165  and  _168
REMARK   68  A    between atoms: _168  and  _169
REMARK   69  A    between atoms: _169  and  _170
REMARK   70  A    between atoms: _170  and  _171
REMARK   71  A    between atoms: _180  and  _182
REMARK   72  A    between atoms: _182  and  _183
REMARK   73  A    between atoms: _182  and  _185
REMARK   74  A    between atoms: _185  and  _186
REMARK   75  A    between atoms: _196  and  _198
REMARK   76  A    between atoms: _198  and  _199
REMARK   77  A    between atoms: _202  and  _204
REMARK   78  A    between atoms: _204  and  _205
REMARK   79  A    between atoms: _204  and  _207
REMARK   80  A    between atoms: _207  and  _208
REMARK   81  A    between atoms: _213  and  _214
REMARK   82  A    between atoms: _216  and  _218
REMARK   83  A    between atoms: _218  and  _219
REMARK   84  A    between atoms: _218  and  _221
REMARK   85  A    between atoms: _221  and  _222
REMARK   86  A    between atoms: _227  and  _228
REMARK   87  A    between atoms: _231  and  _232
REMARK   88  A    between atoms: _237  and  _239
REMARK   89  A    between atoms: _239  and  _240
REMARK   90  A    between atoms: _239  and  _242
REMARK   91  A    between atoms: _242  and  _243
REMARK   92  A    between atoms: _253  and  _255
REMARK   93  A    between atoms: _255  and  _256
REMARK   94  A    between atoms: _255  and  _258
REMARK   95  A    between atoms: _258  and  _259
REMARK   96  A    between atoms: _259  and  _260
REMARK   97  A    between atoms: _260  and  _261
REMARK   98  A    between atoms: _270  and  _272
REMARK   99  A    between atoms: _272  and  _273
REMARK  100  A    between atoms: _272  and  _275
REMARK  101  A    between atoms: _275  and  _276
REMARK  102  A    between atoms: _281  and  _283
REMARK  103  A    between atoms: _283  and  _284
REMARK  104  A    between atoms: _283  and  _286
REMARK  105  A    between atoms: _286  and  _287
REMARK  106  A    between atoms: _287  and  _288
REMARK  107  A    between atoms: _288  and  _289
REMARK  108  A    between atoms: _299  and  _300
REMARK  109  A    between atoms: _305  and  _307
REMARK  110  A    between atoms: _318  and  _321
REMARK  111  A    between atoms: _321  and  _322
REMARK  112  A    between atoms: _327  and  _328
REMARK  113  A    between atoms: _336  and  _338
REMARK  114  A    between atoms: _338  and  _339
REMARK  115  A    between atoms: _338  and  _341
REMARK  116  A    between atoms: _341  and  _342
REMARK  117  A    between atoms: _345  and  _347
REMARK  118  A    between atoms: _347  and  _348
REMARK  119  A    between atoms: _347  and  _350
REMARK  120  A    between atoms: _351  and  _352
REMARK  121  A    between atoms: _357  and  _359
REMARK  122  A    between atoms: _359  and  _360
REMARK  123  A    between atoms: _359  and  _362
REMARK  124  A    between atoms: _362  and  _363
REMARK  125  A    between atoms: _368  and  _369
REMARK  126  A    between atoms: _371  and  _373
REMARK  127  A    between atoms: _373  and  _374
REMARK  128  A    between atoms: _373  and  _376
REMARK  129  A    between atoms: _378  and  _380
REMARK  130  A    between atoms: _380  and  _381
REMARK  131  A    between atoms: _380  and  _383
REMARK  132  A    between atoms: _383  and  _384
REMARK  133  A    between atoms: _387  and  _389
REMARK  134  A    between atoms: _389  and  _390
REMARK  135  A    between atoms: _389  and  _392
REMARK  136  A    between atoms: _392  and  _393
REMARK  137  A    between atoms: _393  and  _394
REMARK                            x       y       z     vdW  Elec       q    Type
REMARK                         _______ _______ _______ _____ _____    ______ ____
ROOT
ATOM      1  O   HOH     1      21.976  11.782  43.996  0.00  0.00    +0.000 OA
ENDROOT
TORSDOF 0
REMARK  Name = ../refined-set-2016/3pcf/3pcf_pocket.pdb
REMARK  137 active torsions:
REMARK  status: ('A' for Active; 'I' for Inactive)
REMARK    1  A    between atoms: _1  and  _3
REMARK    2  A    between atoms: _3  and  _4
REMARK    3  A    between atoms: _3  and  _6
REMARK    4  A    between atoms: _6  and  _7
REMARK    5  A    between atoms: _7  and  _8
REMARK    6  A    between atoms: _13  and  _15
REMARK    7  A    between atoms: _15  and  _16
REMARK    8  A    between atoms: _15  and  _18
REMARK    9  A    between atoms: _18  and  _19
REMARK   10  A    between atoms: _22  and  _24
REMARK   11  A    between atoms: _24  and  _25
REMARK   12  A    between atoms: _28  and  _30
REMARK   13  A    between atoms: _30  and  _31
REMARK   14  A    between atoms: _34  and  _35
REMARK   15  A    between atoms: _40  and  _42
REMARK   16  A    between atoms: _42  and  _43
REMARK   17  A    between atoms: _42  and  _45
REMARK   18  A    between atoms: _45  and  _46
REMARK   19  A    between atoms: _51  and  _52
REMARK   20  A    between atoms: _54  and  _56
REMARK   21  A    between atoms: _56  and  _57
REMARK   22  A    between atoms: _56  and  _59
REMARK   23  A    between atoms: _62  and  _64
REMARK   24  A    between atoms: _64  and  _65
REMARK   25  A    between atoms: _64  and  _67
REMARK   26  A    between atoms: _67  and  _68
REMARK   27  A    between atoms: _71  and  _73
REMARK   28  A    between atoms: _73  and  _74
REMARK   29  A    between atoms: _77  and  _79
REMARK   30  A    between atoms: _79  and  _80
REMARK   31  A    between atoms: _79  and  _82
REMARK   32  A    between atoms: _82  and  _83
REMARK   33  A    between atoms: _83  and  _84
REMARK   34  A    between atoms: _84  and  _85
REMARK   35  A    between atoms: _94  and  _96
REMARK   36  A    between atoms: _96  and  _97
REMARK   37  A    between atoms: _99  and  _101
REMARK   38  A    between atoms: _101  and  _102
REMARK   39  A    between atoms: _101  and  _104
REMARK   40  A    between atoms: _104  and  _105
REMARK   41  A    between atoms: _108  and  _110
REMARK   42  A    between atoms: _110  and  _111
REMARK   43  A    between atoms: _110  and  _113
REMARK   44  A    between atoms: _113  and  _114
REMARK   45  A    between atoms: _119  and  _121
REMARK   46  A    between atoms: _121  and  _122
REMARK   47  A    between atoms: _121  and  _124
REMARK   48  A    between atoms: _124  and  _125
REMARK   49  A    between atoms: _130  and  _131
REMARK   50  A    between atoms: _133  and  _135
REMARK   51  A    between atoms: _135  and  _136
REMARK   52  A    between atoms: _135  and  _138
REMARK   53  A    between atoms: _138  and  _139
REMARK   54  A    between atoms: _139  and  _140
REMARK   55  A    between atoms: _140  and  _141
REMARK   56  A    between atoms: _141  and  _142
REMARK   57  A    between atoms: _146  and  _148
REMARK   58  A    between atoms: _148  and  _149
REMARK   59  A    between atoms: _148  and  _151
REMARK   60  A    between atoms: _151  and  _152
REMARK   61  A    between atoms: _155  and  _157
REMARK   62  A    between atoms: _157  and  _158
REMARK   63  A    between atoms: _157  and  _160
REMARK   64  A    between atoms: _160  and  _161
REMARK   65  A    between atoms: _163  and  _165
REMARK   66  A    between atoms: _165  and  _166
REMARK   67  A    between atoms: _165  and  _168
REMARK   68  A    between atoms: _168  and  _169
REMARK   69  A    between atoms: _169  and  _170
REMARK   70  A    between atoms: _170  and  _171
REMARK   71  A    between atoms: _180  and  _182
REMARK   72  A    between atoms: _182  and  _183
REMARK   73  A    between atoms: _182  and  _185
REMARK   74  A    between atoms: _185  and  _186
REMARK   75  A    between atoms: _196  and  _198
REMARK   76  A    between atoms: _198  and  _199
REMARK   77  A    between atoms: _202  and  _204
REMARK   78  A    between atoms: _204  and  _205
REMARK   79  A    between atoms: _204  and  _207
REMARK   80  A    between atoms: _207  and  _208
REMARK   81  A    between atoms: _213  and  _214
REMARK   82  A    between atoms: _216  and  _218
REMARK   83  A    between atoms: _218  and  _219
REMARK   84  A    between atoms: _218  and  _221
REMARK   85  A    between atoms: _221  and  _222
REMARK   86  A    between atoms: _227  and  _228
REMARK   87  A    between atoms: _231  and  _232
REMARK   88  A    between atoms: _237  and  _239
REMARK   89  A    between atoms: _239  and  _240
REMARK   90  A    between atoms: _239  and  _242
REMARK   91  A    between atoms: _242  and  _243
REMARK   92  A    between atoms: _253  and  _255
REMARK   93  A    between atoms: _255  and  _256
REMARK   94  A    between atoms: _255  and  _258
REMARK   95  A    between atoms: _258  and  _259
REMARK   96  A    between atoms: _259  and  _260
REMARK   97  A    between atoms: _260  and  _261
REMARK   98  A    between atoms: _270  and  _272
REMARK   99  A    between atoms: _272  and  _273
REMARK  100  A    between atoms: _272  and  _275
REMARK  101  A    between atoms: _275  and  _276
REMARK  102  A    between atoms: _281  and  _283
REMARK  103  A    between atoms: _283  and  _284
REMARK  104  A    between atoms: _283  and  _286
REMARK  105  A    between atoms: _286  and  _287
REMARK  106  A    between atoms: _287  and  _288
REMARK  107  A    between atoms: _288  and  _289
REMARK  108  A    between atoms: _299  and  _300
REMARK  109  A    between atoms: _305  and  _307
REMARK  110  A    between atoms: _318  and  _321
REMARK  111  A    between atoms: _321  and  _322
REMARK  112  A    between atoms: _327  and  _328
REMARK  113  A    between atoms: _336  and  _338
REMARK  114  A    between atoms: _338  and  _339
REMARK  115  A    between atoms: _338  and  _341
REMARK  116  A    between atoms: _341  and  _342
REMARK  117  A    between atoms: _345  and  _347
REMARK  118  A    between atoms: _347  and  _348
REMARK  119  A    between atoms: _347  and  _350
REMARK  120  A    between atoms: _351  and  _352
REMARK  121  A    between atoms: _357  and  _359
REMARK  122  A    between atoms: _359  and  _360
REMARK  123  A    between atoms: _359  and  _362
REMARK  124  A    between atoms: _362  and  _363
REMARK  125  A    between atoms: _368  and  _369
REMARK  126  A    between atoms: _371  and  _373
REMARK  127  A    between atoms: _373  and  _374
REMARK  128  A    between atoms: _373  and  _376
REMARK  129  A    between atoms: _378  and  _380
REMARK  130  A    between atoms: _380  and  _381
REMARK  131  A    between atoms: _380  and  _383
REMARK  132  A    between atoms: _383  and  _384
REMARK  133  A    between atoms: _387  and  _389
REMARK  134  A    between atoms: _389  and  _390
REMARK  135  A    between atoms: _389  and  _392
REMARK  136  A    between atoms: _392  and  _393
REMARK  137  A    between atoms: _393  and  _394
REMARK                            x       y       z     vdW  Elec       q    Type
REMARK                         _______ _______ _______ _____ _____    ______ ____
ROOT
ATOM      1  O   HOH     1      18.804   9.843  33.274  0.00  0.00    +0.000 OA
ENDROOT
TORSDOF 0
REMARK  Name = ../refined-set-2016/3pcf/3pcf_pocket.pdb
REMARK  137 active torsions:
REMARK  status: ('A' for Active; 'I' for Inactive)
REMARK    1  A    between atoms: _1  and  _3
REMARK    2  A    between atoms: _3  and  _4
REMARK    3  A    between atoms: _3  and  _6
REMARK    4  A    between atoms: _6  and  _7
REMARK    5  A    between atoms: _7  and  _8
REMARK    6  A    between atoms: _13  and  _15
REMARK    7  A    between atoms: _15  and  _16
REMARK    8  A    between atoms: _15  and  _18
REMARK    9  A    between atoms: _18  and  _19
REMARK   10  A    between atoms: _22  and  _24
REMARK   11  A    between atoms: _24  and  _25
REMARK   12  A    between atoms: _28  and  _30
REMARK   13  A    between atoms: _30  and  _31
REMARK   14  A    between atoms: _34  and  _35
REMARK   15  A    between atoms: _40  and  _42
REMARK   16  A    between atoms: _42  and  _43
REMARK   17  A    between atoms: _42  and  _45
REMARK   18  A    between atoms: _45  and  _46
REMARK   19  A    between atoms: _51  and  _52
REMARK   20  A    between atoms: _54  and  _56
REMARK   21  A    between atoms: _56  and  _57
REMARK   22  A    between atoms: _56  and  _59
REMARK   23  A    between atoms: _62  and  _64
REMARK   24  A    between atoms: _64  and  _65
REMARK   25  A    between atoms: _64  and  _67
REMARK   26  A    between atoms: _67  and  _68
REMARK   27  A    between atoms: _71  and  _73
REMARK   28  A    between atoms: _73  and  _74
REMARK   29  A    between atoms: _77  and  _79
REMARK   30  A    between atoms: _79  and  _80
REMARK   31  A    between atoms: _79  and  _82
REMARK   32  A    between atoms: _82  and  _83
REMARK   33  A    between atoms: _83  and  _84
REMARK   34  A    between atoms: _84  and  _85
REMARK   35  A    between atoms: _94  and  _96
REMARK   36  A    between atoms: _96  and  _97
REMARK   37  A    between atoms: _99  and  _101
REMARK   38  A    between atoms: _101  and  _102
REMARK   39  A    between atoms: _101  and  _104
REMARK   40  A    between atoms: _104  and  _105
REMARK   41  A    between atoms: _108  and  _110
REMARK   42  A    between atoms: _110  and  _111
REMARK   43  A    between atoms: _110  and  _113
REMARK   44  A    between atoms: _113  and  _114
REMARK   45  A    between atoms: _119  and  _121
REMARK   46  A    between atoms: _121  and  _122
REMARK   47  A    between atoms: _121  and  _124
REMARK   48  A    between atoms: _124  and  _125
REMARK   49  A    between atoms: _130  and  _131
REMARK   50  A    between atoms: _133  and  _135
REMARK   51  A    between atoms: _135  and  _136
REMARK   52  A    between atoms: _135  and  _138
REMARK   53  A    between atoms: _138  and  _139
REMARK   54  A    between atoms: _139  and  _140
REMARK   55  A    between atoms: _140  and  _141
REMARK   56  A    between atoms: _141  and  _142
REMARK   57  A    between atoms: _146  and  _148
REMARK   58  A    between atoms: _148  and  _149
REMARK   59  A    between atoms: _148  and  _151
REMARK   60  A    between atoms: _151  and  _152
REMARK   61  A    between atoms: _155  and  _157
REMARK   62  A    between atoms: _157  and  _158
REMARK   63  A    between atoms: _157  and  _160
REMARK   64  A    between atoms: _160  and  _161
REMARK   65  A    between atoms: _163  and  _165
REMARK   66  A    between atoms: _165  and  _166
REMARK   67  A    between atoms: _165  and  _168
REMARK   68  A    between atoms: _168  and  _169
REMARK   69  A    between atoms: _169  and  _170
REMARK   70  A    between atoms: _170  and  _171
REMARK   71  A    between atoms: _180  and  _182
REMARK   72  A    between atoms: _182  and  _183
REMARK   73  A    between atoms: _182  and  _185
REMARK   74  A    between atoms: _185  and  _186
REMARK   75  A    between atoms: _196  and  _198
REMARK   76  A    between atoms: _198  and  _199
REMARK   77  A    between atoms: _202  and  _204
REMARK   78  A    between atoms: _204  and  _205
REMARK   79  A    between atoms: _204  and  _207
REMARK   80  A    between atoms: _207  and  _208
REMARK   81  A    between atoms: _213  and  _214
REMARK   82  A    between atoms: _216  and  _218
REMARK   83  A    between atoms: _218  and  _219
REMARK   84  A    between atoms: _218  and  _221
REMARK   85  A    between atoms: _221  and  _222
REMARK   86  A    between atoms: _227  and  _228
REMARK   87  A    between atoms: _231  and  _232
REMARK   88  A    between atoms: _237  and  _239
REMARK   89  A    between atoms: _239  and  _240
REMARK   90  A    between atoms: _239  and  _242
REMARK   91  A    between atoms: _242  and  _243
REMARK   92  A    between atoms: _253  and  _255
REMARK   93  A    between atoms: _255  and  _256
REMARK   94  A    between atoms: _255  and  _258
REMARK   95  A    between atoms: _258  and  _259
REMARK   96  A    between atoms: _259  and  _260
REMARK   97  A    between atoms: _260  and  _261
REMARK   98  A    between atoms: _270  and  _272
REMARK   99  A    between atoms: _272  and  _273
REMARK  100  A    between atoms: _272  and  _275
REMARK  101  A    between atoms: _275  and  _276
REMARK  102  A    between atoms: _281  and  _283
REMARK  103  A    between atoms: _283  and  _284
REMARK  104  A    between atoms: _283  and  _286
REMARK  105  A    between atoms: _286  and  _287
REMARK  106  A    between atoms: _287  and  _288
REMARK  107  A    between atoms: _288  and  _289
REMARK  108  A    between atoms: _299  and  _300
REMARK  109  A    between atoms: _305  and  _307
REMARK  110  A    between atoms: _318  and  _321
REMARK  111  A    between atoms: _321  and  _322
REMARK  112  A    between atoms: _327  and  _328
REMARK  113  A    between atoms: _336  and  _338
REMARK  114  A    between atoms: _338  and  _339
REMARK  115  A    between atoms: _338  and  _341
REMARK  116  A    between atoms: _341  and  _342
REMARK  117  A    between atoms: _345  and  _347
REMARK  118  A    between atoms: _347  and  _348
REMARK  119  A    between atoms: _347  and  _350
REMARK  120  A    between atoms: _351  and  _352
REMARK  121  A    between atoms: _357  and  _359
REMARK  122  A    between atoms: _359  and  _360
REMARK  123  A    between atoms: _359  and  _362
REMARK  124  A    between atoms: _362  and  _363
REMARK  125  A    between atoms: _368  and  _369
REMARK  126  A    between atoms: _371  and  _373
REMARK  127  A    between atoms: _373  and  _374
REMARK  128  A    between atoms: _373  and  _376
REMARK  129  A    between atoms: _378  and  _380
REMARK  130  A    between atoms: _380  and  _381
REMARK  131  A    between atoms: _380  and  _383
REMARK  132  A    between atoms: _383  and  _384
REMARK  133  A    between atoms: _387  and  _389
REMARK  134  A    between atoms: _389  and  _390
REMARK  135  A    between atoms: _389  and  _392
REMARK  136  A    between atoms: _392  and  _393
REMARK  137  A    between atoms: _393  and  _394
REMARK                            x       y       z     vdW  Elec       q    Type
REMARK                         _______ _______ _______ _____ _____    ______ ____
ROOT
ATOM      1  O   HOH     1      19.283  15.475  46.901  0.00  0.00    +0.000 OA
ENDROOT
TORSDOF 0
REMARK  Name = ../refined-set-2016/3pcf/3pcf_pocket.pdb
REMARK  137 active torsions:
REMARK  status: ('A' for Active; 'I' for Inactive)
REMARK    1  A    between atoms: _1  and  _3
REMARK    2  A    between atoms: _3  and  _4
REMARK    3  A    between atoms: _3  and  _6
REMARK    4  A    between atoms: _6  and  _7
REMARK    5  A    between atoms: _7  and  _8
REMARK    6  A    between atoms: _13  and  _15
REMARK    7  A    between atoms: _15  and  _16
REMARK    8  A    between atoms: _15  and  _18
REMARK    9  A    between atoms: _18  and  _19
REMARK   10  A    between atoms: _22  and  _24
REMARK   11  A    between atoms: _24  and  _25
REMARK   12  A    between atoms: _28  and  _30
REMARK   13  A    between atoms: _30  and  _31
REMARK   14  A    between atoms: _34  and  _35
REMARK   15  A    between atoms: _40  and  _42
REMARK   16  A    between atoms: _42  and  _43
REMARK   17  A    between atoms: _42  and  _45
REMARK   18  A    between atoms: _45  and  _46
REMARK   19  A    between atoms: _51  and  _52
REMARK   20  A    between atoms: _54  and  _56
REMARK   21  A    between atoms: _56  and  _57
REMARK   22  A    between atoms: _56  and  _59
REMARK   23  A    between atoms: _62  and  _64
REMARK   24  A    between atoms: _64  and  _65
REMARK   25  A    between atoms: _64  and  _67
REMARK   26  A    between atoms: _67  and  _68
REMARK   27  A    between atoms: _71  and  _73
REMARK   28  A    between atoms: _73  and  _74
REMARK   29  A    between atoms: _77  and  _79
REMARK   30  A    between atoms: _79  and  _80
REMARK   31  A    between atoms: _79  and  _82
REMARK   32  A    between atoms: _82  and  _83
REMARK   33  A    between atoms: _83  and  _84
REMARK   34  A    between atoms: _84  and  _85
REMARK   35  A    between atoms: _94  and  _96
REMARK   36  A    between atoms: _96  and  _97
REMARK   37  A    between atoms: _99  and  _101
REMARK   38  A    between atoms: _101  and  _102
REMARK   39  A    between atoms: _101  and  _104
REMARK   40  A    between atoms: _104  and  _105
REMARK   41  A    between atoms: _108  and  _110
REMARK   42  A    between atoms: _110  and  _111
REMARK   43  A    between atoms: _110  and  _113
REMARK   44  A    between atoms: _113  and  _114
REMARK   45  A    between atoms: _119  and  _121
REMARK   46  A    between atoms: _121  and  _122
REMARK   47  A    between atoms: _121  and  _124
REMARK   48  A    between atoms: _124  and  _125
REMARK   49  A    between atoms: _130  and  _131
REMARK   50  A    between atoms: _133  and  _135
REMARK   51  A    between atoms: _135  and  _136
REMARK   52  A    between atoms: _135  and  _138
REMARK   53  A    between atoms: _138  and  _139
REMARK   54  A    between atoms: _139  and  _140
REMARK   55  A    between atoms: _140  and  _141
REMARK   56  A    between atoms: _141  and  _142
REMARK   57  A    between atoms: _146  and  _148
REMARK   58  A    between atoms: _148  and  _149
REMARK   59  A    between atoms: _148  and  _151
REMARK   60  A    between atoms: _151  and  _152
REMARK   61  A    between atoms: _155  and  _157
REMARK   62  A    between atoms: _157  and  _158
REMARK   63  A    between atoms: _157  and  _160
REMARK   64  A    between atoms: _160  and  _161
REMARK   65  A    between atoms: _163  and  _165
REMARK   66  A    between atoms: _165  and  _166
REMARK   67  A    between atoms: _165  and  _168
REMARK   68  A    between atoms: _168  and  _169
REMARK   69  A    between atoms: _169  and  _170
REMARK   70  A    between atoms: _170  and  _171
REMARK   71  A    between atoms: _180  and  _182
REMARK   72  A    between atoms: _182  and  _183
REMARK   73  A    between atoms: _182  and  _185
REMARK   74  A    between atoms: _185  and  _186
REMARK   75  A    between atoms: _196  and  _198
REMARK   76  A    between atoms: _198  and  _199
REMARK   77  A    between atoms: _202  and  _204
REMARK   78  A    between atoms: _204  and  _205
REMARK   79  A    between atoms: _204  and  _207
REMARK   80  A    between atoms: _207  and  _208
REMARK   81  A    between atoms: _213  and  _214
REMARK   82  A    between atoms: _216  and  _218
REMARK   83  A    between atoms: _218  and  _219
REMARK   84  A    between atoms: _218  and  _221
REMARK   85  A    between atoms: _221  and  _222
REMARK   86  A    between atoms: _227  and  _228
REMARK   87  A    between atoms: _231  and  _232
REMARK   88  A    between atoms: _237  and  _239
REMARK   89  A    between atoms: _239  and  _240
REMARK   90  A    between atoms: _239  and  _242
REMARK   91  A    between atoms: _242  and  _243
REMARK   92  A    between atoms: _253  and  _255
REMARK   93  A    between atoms: _255  and  _256
REMARK   94  A    between atoms: _255  and  _258
REMARK   95  A    between atoms: _258  and  _259
REMARK   96  A    between atoms: _259  and  _260
REMARK   97  A    between atoms: _260  and  _261
REMARK   98  A    between atoms: _270  and  _272
REMARK   99  A    between atoms: _272  and  _273
REMARK  100  A    between atoms: _272  and  _275
REMARK  101  A    between atoms: _275  and  _276
REMARK  102  A    between atoms: _281  and  _283
REMARK  103  A    between atoms: _283  and  _284
REMARK  104  A    between atoms: _283  and  _286
REMARK  105  A    between atoms: _286  and  _287
REMARK  106  A    between atoms: _287  and  _288
REMARK  107  A    between atoms: _288  and  _289
REMARK  108  A    between atoms: _299  and  _300
REMARK  109  A    between atoms: _305  and  _307
REMARK  110  A    between atoms: _318  and  _321
REMARK  111  A    between atoms: _321  and  _322
REMARK  112  A    between atoms: _327  and  _328
REMARK  113  A    between atoms: _336  and  _338
REMARK  114  A    between atoms: _338  and  _339
REMARK  115  A    between atoms: _338  and  _341
REMARK  116  A    between atoms: _341  and  _342
REMARK  117  A    between atoms: _345  and  _347
REMARK  118  A    between atoms: _347  and  _348
REMARK  119  A    between atoms: _347  and  _350
REMARK  120  A    between atoms: _351  and  _352
REMARK  121  A    between atoms: _357  and  _359
REMARK  122  A    between atoms: _359  and  _360
REMARK  123  A    between atoms: _359  and  _362
REMARK  124  A    between atoms: _362  and  _363
REMARK  125  A    between atoms: _368  and  _369
REMARK  126  A    between atoms: _371  and  _373
REMARK  127  A    between atoms: _373  and  _374
REMARK  128  A    between atoms: _373  and  _376
REMARK  129  A    between atoms: _378  and  _380
REMARK  130  A    between atoms: _380  and  _381
REMARK  131  A    between atoms: _380  and  _383
REMARK  132  A    between atoms: _383  and  _384
REMARK  133  A    between atoms: _387  and  _389
REMARK  134  A    between atoms: _389  and  _390
REMARK  135  A    between atoms: _389  and  _392
REMARK  136  A    between atoms: _392  and  _393
REMARK  137  A    between atoms: _393  and  _394
REMARK                            x       y       z     vdW  Elec       q    Type
REMARK                         _______ _______ _______ _____ _____    ______ ____
ROOT
ATOM      1  O   HOH     1      10.476  12.241  46.122  0.00  0.00    +0.000 OA
ENDROOT
TORSDOF 0
REMARK  Name = ../refined-set-2016/3pcf/3pcf_pocket.pdb
REMARK  137 active torsions:
REMARK  status: ('A' for Active; 'I' for Inactive)
REMARK    1  A    between atoms: _1  and  _3
REMARK    2  A    between atoms: _3  and  _4
REMARK    3  A    between atoms: _3  and  _6
REMARK    4  A    between atoms: _6  and  _7
REMARK    5  A    between atoms: _7  and  _8
REMARK    6  A    between atoms: _13  and  _15
REMARK    7  A    between atoms: _15  and  _16
REMARK    8  A    between atoms: _15  and  _18
REMARK    9  A    between atoms: _18  and  _19
REMARK   10  A    between atoms: _22  and  _24
REMARK   11  A    between atoms: _24  and  _25
REMARK   12  A    between atoms: _28  and  _30
REMARK   13  A    between atoms: _30  and  _31
REMARK   14  A    between atoms: _34  and  _35
REMARK   15  A    between atoms: _40  and  _42
REMARK   16  A    between atoms: _42  and  _43
REMARK   17  A    between atoms: _42  and  _45
REMARK   18  A    between atoms: _45  and  _46
REMARK   19  A    between atoms: _51  and  _52
REMARK   20  A    between atoms: _54  and  _56
REMARK   21  A    between atoms: _56  and  _57
REMARK   22  A    between atoms: _56  and  _59
REMARK   23  A    between atoms: _62  and  _64
REMARK   24  A    between atoms: _64  and  _65
REMARK   25  A    between atoms: _64  and  _67
REMARK   26  A    between atoms: _67  and  _68
REMARK   27  A    between atoms: _71  and  _73
REMARK   28  A    between atoms: _73  and  _74
REMARK   29  A    between atoms: _77  and  _79
REMARK   30  A    between atoms: _79  and  _80
REMARK   31  A    between atoms: _79  and  _82
REMARK   32  A    between atoms: _82  and  _83
REMARK   33  A    between atoms: _83  and  _84
REMARK   34  A    between atoms: _84  and  _85
REMARK   35  A    between atoms: _94  and  _96
REMARK   36  A    between atoms: _96  and  _97
REMARK   37  A    between atoms: _99  and  _101
REMARK   38  A    between atoms: _101  and  _102
REMARK   39  A    between atoms: _101  and  _104
REMARK   40  A    between atoms: _104  and  _105
REMARK   41  A    between atoms: _108  and  _110
REMARK   42  A    between atoms: _110  and  _111
REMARK   43  A    between atoms: _110  and  _113
REMARK   44  A    between atoms: _113  and  _114
REMARK   45  A    between atoms: _119  and  _121
REMARK   46  A    between atoms: _121  and  _122
REMARK   47  A    between atoms: _121  and  _124
REMARK   48  A    between atoms: _124  and  _125
REMARK   49  A    between atoms: _130  and  _131
REMARK   50  A    between atoms: _133  and  _135
REMARK   51  A    between atoms: _135  and  _136
REMARK   52  A    between atoms: _135  and  _138
REMARK   53  A    between atoms: _138  and  _139
REMARK   54  A    between atoms: _139  and  _140
REMARK   55  A    between atoms: _140  and  _141
REMARK   56  A    between atoms: _141  and  _142
REMARK   57  A    between atoms: _146  and  _148
REMARK   58  A    between atoms: _148  and  _149
REMARK   59  A    between atoms: _148  and  _151
REMARK   60  A    between atoms: _151  and  _152
REMARK   61  A    between atoms: _155  and  _157
REMARK   62  A    between atoms: _157  and  _158
REMARK   63  A    between atoms: _157  and  _160
REMARK   64  A    between atoms: _160  and  _161
REMARK   65  A    between atoms: _163  and  _165
REMARK   66  A    between atoms: _165  and  _166
REMARK   67  A    between atoms: _165  and  _168
REMARK   68  A    between atoms: _168  and  _169
REMARK   69  A    between atoms: _169  and  _170
REMARK   70  A    between atoms: _170  and  _171
REMARK   71  A    between atoms: _180  and  _182
REMARK   72  A    between atoms: _182  and  _183
REMARK   73  A    between atoms: _182  and  _185
REMARK   74  A    between atoms: _185  and  _186
REMARK   75  A    between atoms: _196  and  _198
REMARK   76  A    between atoms: _198  and  _199
REMARK   77  A    between atoms: _202  and  _204
REMARK   78  A    between atoms: _204  and  _205
REMARK   79  A    between atoms: _204  and  _207
REMARK   80  A    between atoms: _207  and  _208
REMARK   81  A    between atoms: _213  and  _214
REMARK   82  A    between atoms: _216  and  _218
REMARK   83  A    between atoms: _218  and  _219
REMARK   84  A    between atoms: _218  and  _221
REMARK   85  A    between atoms: _221  and  _222
REMARK   86  A    between atoms: _227  and  _228
REMARK   87  A    between atoms: _231  and  _232
REMARK   88  A    between atoms: _237  and  _239
REMARK   89  A    between atoms: _239  and  _240
REMARK   90  A    between atoms: _239  and  _242
REMARK   91  A    between atoms: _242  and  _243
REMARK   92  A    between atoms: _253  and  _255
REMARK   93  A    between atoms: _255  and  _256
REMARK   94  A    between atoms: _255  and  _258
REMARK   95  A    between atoms: _258  and  _259
REMARK   96  A    between atoms: _259  and  _260
REMARK   97  A    between atoms: _260  and  _261
REMARK   98  A    between atoms: _270  and  _272
REMARK   99  A    between atoms: _272  and  _273
REMARK  100  A    between atoms: _272  and  _275
REMARK  101  A    between atoms: _275  and  _276
REMARK  102  A    between atoms: _281  and  _283
REMARK  103  A    between atoms: _283  and  _284
REMARK  104  A    between atoms: _283  and  _286
REMARK  105  A    between atoms: _286  and  _287
REMARK  106  A    between atoms: _287  and  _288
REMARK  107  A    between atoms: _288  and  _289
REMARK  108  A    between atoms: _299  and  _300
REMARK  109  A    between atoms: _305  and  _307
REMARK  110  A    between atoms: _318  and  _321
REMARK  111  A    between atoms: _321  and  _322
REMARK  112  A    between atoms: _327  and  _328
REMARK  113  A    between atoms: _336  and  _338
REMARK  114  A    between atoms: _338  and  _339
REMARK  115  A    between atoms: _338  and  _341
REMARK  116  A    between atoms: _341  and  _342
REMARK  117  A    between atoms: _345  and  _347
REMARK  118  A    between atoms: _347  and  _348
REMARK  119  A    between atoms: _347  and  _350
REMARK  120  A    between atoms: _351  and  _352
REMARK  121  A    between atoms: _357  and  _359
REMARK  122  A    between atoms: _359  and  _360
REMARK  123  A    between atoms: _359  and  _362
REMARK  124  A    between atoms: _362  and  _363
REMARK  125  A    between atoms: _368  and  _369
REMARK  126  A    between atoms: _371  and  _373
REMARK  127  A    between atoms: _373  and  _374
REMARK  128  A    between atoms: _373  and  _376
REMARK  129  A    between atoms: _378  and  _380
REMARK  130  A    between atoms: _380  and  _381
REMARK  131  A    between atoms: _380  and  _383
REMARK  132  A    between atoms: _383  and  _384
REMARK  133  A    between atoms: _387  and  _389
REMARK  134  A    between atoms: _389  and  _390
REMARK  135  A    between atoms: _389  and  _392
REMARK  136  A    between atoms: _392  and  _393
REMARK  137  A    between atoms: _393  and  _394
REMARK                            x       y       z     vdW  Elec       q    Type
REMARK                         _______ _______ _______ _____ _____    ______ ____
ROOT
ATOM      1  O   HOH     1       8.834  12.388  35.148  0.00  0.00    +0.000 OA
ENDROOT
TORSDOF 0
REMARK  Name = ../refined-set-2016/3pcf/3pcf_pocket.pdb
REMARK  137 active torsions:
REMARK  status: ('A' for Active; 'I' for Inactive)
REMARK    1  A    between atoms: _1  and  _3
REMARK    2  A    between atoms: _3  and  _4
REMARK    3  A    between atoms: _3  and  _6
REMARK    4  A    between atoms: _6  and  _7
REMARK    5  A    between atoms: _7  and  _8
REMARK    6  A    between atoms: _13  and  _15
REMARK    7  A    between atoms: _15  and  _16
REMARK    8  A    between atoms: _15  and  _18
REMARK    9  A    between atoms: _18  and  _19
REMARK   10  A    between atoms: _22  and  _24
REMARK   11  A    between atoms: _24  and  _25
REMARK   12  A    between atoms: _28  and  _30
REMARK   13  A    between atoms: _30  and  _31
REMARK   14  A    between atoms: _34  and  _35
REMARK   15  A    between atoms: _40  and  _42
REMARK   16  A    between atoms: _42  and  _43
REMARK   17  A    between atoms: _42  and  _45
REMARK   18  A    between atoms: _45  and  _46
REMARK   19  A    between atoms: _51  and  _52
REMARK   20  A    between atoms: _54  and  _56
REMARK   21  A    between atoms: _56  and  _57
REMARK   22  A    between atoms: _56  and  _59
REMARK   23  A    between atoms: _62  and  _64
REMARK   24  A    between atoms: _64  and  _65
REMARK   25  A    between atoms: _64  and  _67
REMARK   26  A    between atoms: _67  and  _68
REMARK   27  A    between atoms: _71  and  _73
REMARK   28  A    between atoms: _73  and  _74
REMARK   29  A    between atoms: _77  and  _79
REMARK   30  A    between atoms: _79  and  _80
REMARK   31  A    between atoms: _79  and  _82
REMARK   32  A    between atoms: _82  and  _83
REMARK   33  A    between atoms: _83  and  _84
REMARK   34  A    between atoms: _84  and  _85
REMARK   35  A    between atoms: _94  and  _96
REMARK   36  A    between atoms: _96  and  _97
REMARK   37  A    between atoms: _99  and  _101
REMARK   38  A    between atoms: _101  and  _102
REMARK   39  A    between atoms: _101  and  _104
REMARK   40  A    between atoms: _104  and  _105
REMARK   41  A    between atoms: _108  and  _110
REMARK   42  A    between atoms: _110  and  _111
REMARK   43  A    between atoms: _110  and  _113
REMARK   44  A    between atoms: _113  and  _114
REMARK   45  A    between atoms: _119  and  _121
REMARK   46  A    between atoms: _121  and  _122
REMARK   47  A    between atoms: _121  and  _124
REMARK   48  A    between atoms: _124  and  _125
REMARK   49  A    between atoms: _130  and  _131
REMARK   50  A    between atoms: _133  and  _135
REMARK   51  A    between atoms: _135  and  _136
REMARK   52  A    between atoms: _135  and  _138
REMARK   53  A    between atoms: _138  and  _139
REMARK   54  A    between atoms: _139  and  _140
REMARK   55  A    between atoms: _140  and  _141
REMARK   56  A    between atoms: _141  and  _142
REMARK   57  A    between atoms: _146  and  _148
REMARK   58  A    between atoms: _148  and  _149
REMARK   59  A    between atoms: _148  and  _151
REMARK   60  A    between atoms: _151  and  _152
REMARK   61  A    between atoms: _155  and  _157
REMARK   62  A    between atoms: _157  and  _158
REMARK   63  A    between atoms: _157  and  _160
REMARK   64  A    between atoms: _160  and  _161
REMARK   65  A    between atoms: _163  and  _165
REMARK   66  A    between atoms: _165  and  _166
REMARK   67  A    between atoms: _165  and  _168
REMARK   68  A    between atoms: _168  and  _169
REMARK   69  A    between atoms: _169  and  _170
REMARK   70  A    between atoms: _170  and  _171
REMARK   71  A    between atoms: _180  and  _182
REMARK   72  A    between atoms: _182  and  _183
REMARK   73  A    between atoms: _182  and  _185
REMARK   74  A    between atoms: _185  and  _186
REMARK   75  A    between atoms: _196  and  _198
REMARK   76  A    between atoms: _198  and  _199
REMARK   77  A    between atoms: _202  and  _204
REMARK   78  A    between atoms: _204  and  _205
REMARK   79  A    between atoms: _204  and  _207
REMARK   80  A    between atoms: _207  and  _208
REMARK   81  A    between atoms: _213  and  _214
REMARK   82  A    between atoms: _216  and  _218
REMARK   83  A    between atoms: _218  and  _219
REMARK   84  A    between atoms: _218  and  _221
REMARK   85  A    between atoms: _221  and  _222
REMARK   86  A    between atoms: _227  and  _228
REMARK   87  A    between atoms: _231  and  _232
REMARK   88  A    between atoms: _237  and  _239
REMARK   89  A    between atoms: _239  and  _240
REMARK   90  A    between atoms: _239  and  _242
REMARK   91  A    between atoms: _242  and  _243
REMARK   92  A    between atoms: _253  and  _255
REMARK   93  A    between atoms: _255  and  _256
REMARK   94  A    between atoms: _255  and  _258
REMARK   95  A    between atoms: _258  and  _259
REMARK   96  A    between atoms: _259  and  _260
REMARK   97  A    between atoms: _260  and  _261
REMARK   98  A    between atoms: _270  and  _272
REMARK   99  A    between atoms: _272  and  _273
REMARK  100  A    between atoms: _272  and  _275
REMARK  101  A    between atoms: _275  and  _276
REMARK  102  A    between atoms: _281  and  _283
REMARK  103  A    between atoms: _283  and  _284
REMARK  104  A    between atoms: _283  and  _286
REMARK  105  A    between atoms: _286  and  _287
REMARK  106  A    between atoms: _287  and  _288
REMARK  107  A    between atoms: _288  and  _289
REMARK  108  A    between atoms: _299  and  _300
REMARK  109  A    between atoms: _305  and  _307
REMARK  110  A    between atoms: _318  and  _321
REMARK  111  A    between atoms: _321  and  _322
REMARK  112  A    between atoms: _327  and  _328
REMARK  113  A    between atoms: _336  and  _338
REMARK  114  A    between atoms: _338  and  _339
REMARK  115  A    between atoms: _338  and  _341
REMARK  116  A    between atoms: _341  and  _342
REMARK  117  A    between atoms: _345  and  _347
REMARK  118  A    between atoms: _347  and  _348
REMARK  119  A    between atoms: _347  and  _350
REMARK  120  A    between atoms: _351  and  _352
REMARK  121  A    between atoms: _357  and  _359
REMARK  122  A    between atoms: _359  and  _360
REMARK  123  A    between atoms: _359  and  _362
REMARK  124  A    between atoms: _362  and  _363
REMARK  125  A    between atoms: _368  and  _369
REMARK  126  A    between atoms: _371  and  _373
REMARK  127  A    between atoms: _373  and  _374
REMARK  128  A    between atoms: _373  and  _376
REMARK  129  A    between atoms: _378  and  _380
REMARK  130  A    between atoms: _380  and  _381
REMARK  131  A    between atoms: _380  and  _383
REMARK  132  A    between atoms: _383  and  _384
REMARK  133  A    between atoms: _387  and  _389
REMARK  134  A    between atoms: _389  and  _390
REMARK  135  A    between atoms: _389  and  _392
REMARK  136  A    between atoms: _392  and  _393
REMARK  137  A    between atoms: _393  and  _394
REMARK                            x       y       z     vdW  Elec       q    Type
REMARK                         _______ _______ _______ _____ _____    ______ ____
ROOT
ATOM      1  O   HOH     1       8.438   4.440  41.507  0.00  0.00    +0.000 OA
ENDROOT
TORSDOF 0
REMARK  Name = ../refined-set-2016/3pcf/3pcf_pocket.pdb
REMARK  137 active torsions:
REMARK  status: ('A' for Active; 'I' for Inactive)
REMARK    1  A    between atoms: _1  and  _3
REMARK    2  A    between atoms: _3  and  _4
REMARK    3  A    between atoms: _3  and  _6
REMARK    4  A    between atoms: _6  and  _7
REMARK    5  A    between atoms: _7  and  _8
REMARK    6  A    between atoms: _13  and  _15
REMARK    7  A    between atoms: _15  and  _16
REMARK    8  A    between atoms: _15  and  _18
REMARK    9  A    between atoms: _18  and  _19
REMARK   10  A    between atoms: _22  and  _24
REMARK   11  A    between atoms: _24  and  _25
REMARK   12  A    between atoms: _28  and  _30
REMARK   13  A    between atoms: _30  and  _31
REMARK   14  A    between atoms: _34  and  _35
REMARK   15  A    between atoms: _40  and  _42
REMARK   16  A    between atoms: _42  and  _43
REMARK   17  A    between atoms: _42  and  _45
REMARK   18  A    between atoms: _45  and  _46
REMARK   19  A    between atoms: _51  and  _52
REMARK   20  A    between atoms: _54  and  _56
REMARK   21  A    between atoms: _56  and  _57
REMARK   22  A    between atoms: _56  and  _59
REMARK   23  A    between atoms: _62  and  _64
REMARK   24  A    between atoms: _64  and  _65
REMARK   25  A    between atoms: _64  and  _67
REMARK   26  A    between atoms: _67  and  _68
REMARK   27  A    between atoms: _71  and  _73
REMARK   28  A    between atoms: _73  and  _74
REMARK   29  A    between atoms: _77  and  _79
REMARK   30  A    between atoms: _79  and  _80
REMARK   31  A    between atoms: _79  and  _82
REMARK   32  A    between atoms: _82  and  _83
REMARK   33  A    between atoms: _83  and  _84
REMARK   34  A    between atoms: _84  and  _85
REMARK   35  A    between atoms: _94  and  _96
REMARK   36  A    between atoms: _96  and  _97
REMARK   37  A    between atoms: _99  and  _101
REMARK   38  A    between atoms: _101  and  _102
REMARK   39  A    between atoms: _101  and  _104
REMARK   40  A    between atoms: _104  and  _105
REMARK   41  A    between atoms: _108  and  _110
REMARK   42  A    between atoms: _110  and  _111
REMARK   43  A    between atoms: _110  and  _113
REMARK   44  A    between atoms: _113  and  _114
REMARK   45  A    between atoms: _119  and  _121
REMARK   46  A    between atoms: _121  and  _122
REMARK   47  A    between atoms: _121  and  _124
REMARK   48  A    between atoms: _124  and  _125
REMARK   49  A    between atoms: _130  and  _131
REMARK   50  A    between atoms: _133  and  _135
REMARK   51  A    between atoms: _135  and  _136
REMARK   52  A    between atoms: _135  and  _138
REMARK   53  A    between atoms: _138  and  _139
REMARK   54  A    between atoms: _139  and  _140
REMARK   55  A    between atoms: _140  and  _141
REMARK   56  A    between atoms: _141  and  _142
REMARK   57  A    between atoms: _146  and  _148
REMARK   58  A    between atoms: _148  and  _149
REMARK   59  A    between atoms: _148  and  _151
REMARK   60  A    between atoms: _151  and  _152
REMARK   61  A    between atoms: _155  and  _157
REMARK   62  A    between atoms: _157  and  _158
REMARK   63  A    between atoms: _157  and  _160
REMARK   64  A    between atoms: _160  and  _161
REMARK   65  A    between atoms: _163  and  _165
REMARK   66  A    between atoms: _165  and  _166
REMARK   67  A    between atoms: _165  and  _168
REMARK   68  A    between atoms: _168  and  _169
REMARK   69  A    between atoms: _169  and  _170
REMARK   70  A    between atoms: _170  and  _171
REMARK   71  A    between atoms: _180  and  _182
REMARK   72  A    between atoms: _182  and  _183
REMARK   73  A    between atoms: _182  and  _185
REMARK   74  A    between atoms: _185  and  _186
REMARK   75  A    between atoms: _196  and  _198
REMARK   76  A    between atoms: _198  and  _199
REMARK   77  A    between atoms: _202  and  _204
REMARK   78  A    between atoms: _204  and  _205
REMARK   79  A    between atoms: _204  and  _207
REMARK   80  A    between atoms: _207  and  _208
REMARK   81  A    between atoms: _213  and  _214
REMARK   82  A    between atoms: _216  and  _218
REMARK   83  A    between atoms: _218  and  _219
REMARK   84  A    between atoms: _218  and  _221
REMARK   85  A    between atoms: _221  and  _222
REMARK   86  A    between atoms: _227  and  _228
REMARK   87  A    between atoms: _231  and  _232
REMARK   88  A    between atoms: _237  and  _239
REMARK   89  A    between atoms: _239  and  _240
REMARK   90  A    between atoms: _239  and  _242
REMARK   91  A    between atoms: _242  and  _243
REMARK   92  A    between atoms: _253  and  _255
REMARK   93  A    between atoms: _255  and  _256
REMARK   94  A    between atoms: _255  and  _258
REMARK   95  A    between atoms: _258  and  _259
REMARK   96  A    between atoms: _259  and  _260
REMARK   97  A    between atoms: _260  and  _261
REMARK   98  A    between atoms: _270  and  _272
REMARK   99  A    between atoms: _272  and  _273
REMARK  100  A    between atoms: _272  and  _275
REMARK  101  A    between atoms: _275  and  _276
REMARK  102  A    between atoms: _281  and  _283
REMARK  103  A    between atoms: _283  and  _284
REMARK  104  A    between atoms: _283  and  _286
REMARK  105  A    between atoms: _286  and  _287
REMARK  106  A    between atoms: _287  and  _288
REMARK  107  A    between atoms: _288  and  _289
REMARK  108  A    between atoms: _299  and  _300
REMARK  109  A    between atoms: _305  and  _307
REMARK  110  A    between atoms: _318  and  _321
REMARK  111  A    between atoms: _321  and  _322
REMARK  112  A    between atoms: _327  and  _328
REMARK  113  A    between atoms: _336  and  _338
REMARK  114  A    between atoms: _338  and  _339
REMARK  115  A    between atoms: _338  and  _341
REMARK  116  A    between atoms: _341  and  _342
REMARK  117  A    between atoms: _345  and  _347
REMARK  118  A    between atoms: _347  and  _348
REMARK  119  A    between atoms: _347  and  _350
REMARK  120  A    between atoms: _351  and  _352
REMARK  121  A    between atoms: _357  and  _359
REMARK  122  A    between atoms: _359  and  _360
REMARK  123  A    between atoms: _359  and  _362
REMARK  124  A    between atoms: _362  and  _363
REMARK  125  A    between atoms: _368  and  _369
REMARK  126  A    between atoms: _371  and  _373
REMARK  127  A    between atoms: _373  and  _374
REMARK  128  A    between atoms: _373  and  _376
REMARK  129  A    between atoms: _378  and  _380
REMARK  130  A    between atoms: _380  and  _381
REMARK  131  A    between atoms: _380  and  _383
REMARK  132  A    between atoms: _383  and  _384
REMARK  133  A    between atoms: _387  and  _389
REMARK  134  A    between atoms: _389  and  _390
REMARK  135  A    between atoms: _389  and  _392
REMARK  136  A    between atoms: _392  and  _393
REMARK  137  A    between atoms: _393  and  _394
REMARK                            x       y       z     vdW  Elec       q    Type
REMARK                         _______ _______ _______ _____ _____    ______ ____
ROOT
ATOM      1  O   HOH     1      10.907   3.725  43.056  0.00  0.00    +0.000 OA
ENDROOT
TORSDOF 0
REMARK  Name = ../refined-set-2016/3pcf/3pcf_pocket.pdb
REMARK  137 active torsions:
REMARK  status: ('A' for Active; 'I' for Inactive)
REMARK    1  A    between atoms: _1  and  _3
REMARK    2  A    between atoms: _3  and  _4
REMARK    3  A    between atoms: _3  and  _6
REMARK    4  A    between atoms: _6  and  _7
REMARK    5  A    between atoms: _7  and  _8
REMARK    6  A    between atoms: _13  and  _15
REMARK    7  A    between atoms: _15  and  _16
REMARK    8  A    between atoms: _15  and  _18
REMARK    9  A    between atoms: _18  and  _19
REMARK   10  A    between atoms: _22  and  _24
REMARK   11  A    between atoms: _24  and  _25
REMARK   12  A    between atoms: _28  and  _30
REMARK   13  A    between atoms: _30  and  _31
REMARK   14  A    between atoms: _34  and  _35
REMARK   15  A    between atoms: _40  and  _42
REMARK   16  A    between atoms: _42  and  _43
REMARK   17  A    between atoms: _42  and  _45
REMARK   18  A    between atoms: _45  and  _46
REMARK   19  A    between atoms: _51  and  _52
REMARK   20  A    between atoms: _54  and  _56
REMARK   21  A    between atoms: _56  and  _57
REMARK   22  A    between atoms: _56  and  _59
REMARK   23  A    between atoms: _62  and  _64
REMARK   24  A    between atoms: _64  and  _65
REMARK   25  A    between atoms: _64  and  _67
REMARK   26  A    between atoms: _67  and  _68
REMARK   27  A    between atoms: _71  and  _73
REMARK   28  A    between atoms: _73  and  _74
REMARK   29  A    between atoms: _77  and  _79
REMARK   30  A    between atoms: _79  and  _80
REMARK   31  A    between atoms: _79  and  _82
REMARK   32  A    between atoms: _82  and  _83
REMARK   33  A    between atoms: _83  and  _84
REMARK   34  A    between atoms: _84  and  _85
REMARK   35  A    between atoms: _94  and  _96
REMARK   36  A    between atoms: _96  and  _97
REMARK   37  A    between atoms: _99  and  _101
REMARK   38  A    between atoms: _101  and  _102
REMARK   39  A    between atoms: _101  and  _104
REMARK   40  A    between atoms: _104  and  _105
REMARK   41  A    between atoms: _108  and  _110
REMARK   42  A    between atoms: _110  and  _111
REMARK   43  A    between atoms: _110  and  _113
REMARK   44  A    between atoms: _113  and  _114
REMARK   45  A    between atoms: _119  and  _121
REMARK   46  A    between atoms: _121  and  _122
REMARK   47  A    between atoms: _121  and  _124
REMARK   48  A    between atoms: _124  and  _125
REMARK   49  A    between atoms: _130  and  _131
REMARK   50  A    between atoms: _133  and  _135
REMARK   51  A    between atoms: _135  and  _136
REMARK   52  A    between atoms: _135  and  _138
REMARK   53  A    between atoms: _138  and  _139
REMARK   54  A    between atoms: _139  and  _140
REMARK   55  A    between atoms: _140  and  _141
REMARK   56  A    between atoms: _141  and  _142
REMARK   57  A    between atoms: _146  and  _148
REMARK   58  A    between atoms: _148  and  _149
REMARK   59  A    between atoms: _148  and  _151
REMARK   60  A    between atoms: _151  and  _152
REMARK   61  A    between atoms: _155  and  _157
REMARK   62  A    between atoms: _157  and  _158
REMARK   63  A    between atoms: _157  and  _160
REMARK   64  A    between atoms: _160  and  _161
REMARK   65  A    between atoms: _163  and  _165
REMARK   66  A    between atoms: _165  and  _166
REMARK   67  A    between atoms: _165  and  _168
REMARK   68  A    between atoms: _168  and  _169
REMARK   69  A    between atoms: _169  and  _170
REMARK   70  A    between atoms: _170  and  _171
REMARK   71  A    between atoms: _180  and  _182
REMARK   72  A    between atoms: _182  and  _183
REMARK   73  A    between atoms: _182  and  _185
REMARK   74  A    between atoms: _185  and  _186
REMARK   75  A    between atoms: _196  and  _198
REMARK   76  A    between atoms: _198  and  _199
REMARK   77  A    between atoms: _202  and  _204
REMARK   78  A    between atoms: _204  and  _205
REMARK   79  A    between atoms: _204  and  _207
REMARK   80  A    between atoms: _207  and  _208
REMARK   81  A    between atoms: _213  and  _214
REMARK   82  A    between atoms: _216  and  _218
REMARK   83  A    between atoms: _218  and  _219
REMARK   84  A    between atoms: _218  and  _221
REMARK   85  A    between atoms: _221  and  _222
REMARK   86  A    between atoms: _227  and  _228
REMARK   87  A    between atoms: _231  and  _232
REMARK   88  A    between atoms: _237  and  _239
REMARK   89  A    between atoms: _239  and  _240
REMARK   90  A    between atoms: _239  and  _242
REMARK   91  A    between atoms: _242  and  _243
REMARK   92  A    between atoms: _253  and  _255
REMARK   93  A    between atoms: _255  and  _256
REMARK   94  A    between atoms: _255  and  _258
REMARK   95  A    between atoms: _258  and  _259
REMARK   96  A    between atoms: _259  and  _260
REMARK   97  A    between atoms: _260  and  _261
REMARK   98  A    between atoms: _270  and  _272
REMARK   99  A    between atoms: _272  and  _273
REMARK  100  A    between atoms: _272  and  _275
REMARK  101  A    between atoms: _275  and  _276
REMARK  102  A    between atoms: _281  and  _283
REMARK  103  A    between atoms: _283  and  _284
REMARK  104  A    between atoms: _283  and  _286
REMARK  105  A    between atoms: _286  and  _287
REMARK  106  A    between atoms: _287  and  _288
REMARK  107  A    between atoms: _288  and  _289
REMARK  108  A    between atoms: _299  and  _300
REMARK  109  A    between atoms: _305  and  _307
REMARK  110  A    between atoms: _318  and  _321
REMARK  111  A    between atoms: _321  and  _322
REMARK  112  A    between atoms: _327  and  _328
REMARK  113  A    between atoms: _336  and  _338
REMARK  114  A    between atoms: _338  and  _339
REMARK  115  A    between atoms: _338  and  _341
REMARK  116  A    between atoms: _341  and  _342
REMARK  117  A    between atoms: _345  and  _347
REMARK  118  A    between atoms: _347  and  _348
REMARK  119  A    between atoms: _347  and  _350
REMARK  120  A    between atoms: _351  and  _352
REMARK  121  A    between atoms: _357  and  _359
REMARK  122  A    between atoms: _359  and  _360
REMARK  123  A    between atoms: _359  and  _362
REMARK  124  A    between atoms: _362  and  _363
REMARK  125  A    between atoms: _368  and  _369
REMARK  126  A    between atoms: _371  and  _373
REMARK  127  A    between atoms: _373  and  _374
REMARK  128  A    between atoms: _373  and  _376
REMARK  129  A    between atoms: _378  and  _380
REMARK  130  A    between atoms: _380  and  _381
REMARK  131  A    between atoms: _380  and  _383
REMARK  132  A    between atoms: _383  and  _384
REMARK  133  A    between atoms: _387  and  _389
REMARK  134  A    between atoms: _389  and  _390
REMARK  135  A    between atoms: _389  and  _392
REMARK  136  A    between atoms: _392  and  _393
REMARK  137  A    between atoms: _393  and  _394
REMARK                            x       y       z     vdW  Elec       q    Type
REMARK                         _______ _______ _______ _____ _____    ______ ____
ROOT
ATOM      1  O   HOH     1      15.314  18.419  37.795  0.00  0.00    +0.000 OA
ENDROOT
TORSDOF 0
REMARK  Name = ../refined-set-2016/3pcf/3pcf_pocket.pdb
REMARK  137 active torsions:
REMARK  status: ('A' for Active; 'I' for Inactive)
REMARK    1  A    between atoms: _1  and  _3
REMARK    2  A    between atoms: _3  and  _4
REMARK    3  A    between atoms: _3  and  _6
REMARK    4  A    between atoms: _6  and  _7
REMARK    5  A    between atoms: _7  and  _8
REMARK    6  A    between atoms: _13  and  _15
REMARK    7  A    between atoms: _15  and  _16
REMARK    8  A    between atoms: _15  and  _18
REMARK    9  A    between atoms: _18  and  _19
REMARK   10  A    between atoms: _22  and  _24
REMARK   11  A    between atoms: _24  and  _25
REMARK   12  A    between atoms: _28  and  _30
REMARK   13  A    between atoms: _30  and  _31
REMARK   14  A    between atoms: _34  and  _35
REMARK   15  A    between atoms: _40  and  _42
REMARK   16  A    between atoms: _42  and  _43
REMARK   17  A    between atoms: _42  and  _45
REMARK   18  A    between atoms: _45  and  _46
REMARK   19  A    between atoms: _51  and  _52
REMARK   20  A    between atoms: _54  and  _56
REMARK   21  A    between atoms: _56  and  _57
REMARK   22  A    between atoms: _56  and  _59
REMARK   23  A    between atoms: _62  and  _64
REMARK   24  A    between atoms: _64  and  _65
REMARK   25  A    between atoms: _64  and  _67
REMARK   26  A    between atoms: _67  and  _68
REMARK   27  A    between atoms: _71  and  _73
REMARK   28  A    between atoms: _73  and  _74
REMARK   29  A    between atoms: _77  and  _79
REMARK   30  A    between atoms: _79  and  _80
REMARK   31  A    between atoms: _79  and  _82
REMARK   32  A    between atoms: _82  and  _83
REMARK   33  A    between atoms: _83  and  _84
REMARK   34  A    between atoms: _84  and  _85
REMARK   35  A    between atoms: _94  and  _96
REMARK   36  A    between atoms: _96  and  _97
REMARK   37  A    between atoms: _99  and  _101
REMARK   38  A    between atoms: _101  and  _102
REMARK   39  A    between atoms: _101  and  _104
REMARK   40  A    between atoms: _104  and  _105
REMARK   41  A    between atoms: _108  and  _110
REMARK   42  A    between atoms: _110  and  _111
REMARK   43  A    between atoms: _110  and  _113
REMARK   44  A    between atoms: _113  and  _114
REMARK   45  A    between atoms: _119  and  _121
REMARK   46  A    between atoms: _121  and  _122
REMARK   47  A    between atoms: _121  and  _124
REMARK   48  A    between atoms: _124  and  _125
REMARK   49  A    between atoms: _130  and  _131
REMARK   50  A    between atoms: _133  and  _135
REMARK   51  A    between atoms: _135  and  _136
REMARK   52  A    between atoms: _135  and  _138
REMARK   53  A    between atoms: _138  and  _139
REMARK   54  A    between atoms: _139  and  _140
REMARK   55  A    between atoms: _140  and  _141
REMARK   56  A    between atoms: _141  and  _142
REMARK   57  A    between atoms: _146  and  _148
REMARK   58  A    between atoms: _148  and  _149
REMARK   59  A    between atoms: _148  and  _151
REMARK   60  A    between atoms: _151  and  _152
REMARK   61  A    between atoms: _155  and  _157
REMARK   62  A    between atoms: _157  and  _158
REMARK   63  A    between atoms: _157  and  _160
REMARK   64  A    between atoms: _160  and  _161
REMARK   65  A    between atoms: _163  and  _165
REMARK   66  A    between atoms: _165  and  _166
REMARK   67  A    between atoms: _165  and  _168
REMARK   68  A    between atoms: _168  and  _169
REMARK   69  A    between atoms: _169  and  _170
REMARK   70  A    between atoms: _170  and  _171
REMARK   71  A    between atoms: _180  and  _182
REMARK   72  A    between atoms: _182  and  _183
REMARK   73  A    between atoms: _182  and  _185
REMARK   74  A    between atoms: _185  and  _186
REMARK   75  A    between atoms: _196  and  _198
REMARK   76  A    between atoms: _198  and  _199
REMARK   77  A    between atoms: _202  and  _204
REMARK   78  A    between atoms: _204  and  _205
REMARK   79  A    between atoms: _204  and  _207
REMARK   80  A    between atoms: _207  and  _208
REMARK   81  A    between atoms: _213  and  _214
REMARK   82  A    between atoms: _216  and  _218
REMARK   83  A    between atoms: _218  and  _219
REMARK   84  A    between atoms: _218  and  _221
REMARK   85  A    between atoms: _221  and  _222
REMARK   86  A    between atoms: _227  and  _228
REMARK   87  A    between atoms: _231  and  _232
REMARK   88  A    between atoms: _237  and  _239
REMARK   89  A    between atoms: _239  and  _240
REMARK   90  A    between atoms: _239  and  _242
REMARK   91  A    between atoms: _242  and  _243
REMARK   92  A    between atoms: _253  and  _255
REMARK   93  A    between atoms: _255  and  _256
REMARK   94  A    between atoms: _255  and  _258
REMARK   95  A    between atoms: _258  and  _259
REMARK   96  A    between atoms: _259  and  _260
REMARK   97  A    between atoms: _260  and  _261
REMARK   98  A    between atoms: _270  and  _272
REMARK   99  A    between atoms: _272  and  _273
REMARK  100  A    between atoms: _272  and  _275
REMARK  101  A    between atoms: _275  and  _276
REMARK  102  A    between atoms: _281  and  _283
REMARK  103  A    between atoms: _283  and  _284
REMARK  104  A    between atoms: _283  and  _286
REMARK  105  A    between atoms: _286  and  _287
REMARK  106  A    between atoms: _287  and  _288
REMARK  107  A    between atoms: _288  and  _289
REMARK  108  A    between atoms: _299  and  _300
REMARK  109  A    between atoms: _305  and  _307
REMARK  110  A    between atoms: _318  and  _321
REMARK  111  A    between atoms: _321  and  _322
REMARK  112  A    between atoms: _327  and  _328
REMARK  113  A    between atoms: _336  and  _338
REMARK  114  A    between atoms: _338  and  _339
REMARK  115  A    between atoms: _338  and  _341
REMARK  116  A    between atoms: _341  and  _342
REMARK  117  A    between atoms: _345  and  _347
REMARK  118  A    between atoms: _347  and  _348
REMARK  119  A    between atoms: _347  and  _350
REMARK  120  A    between atoms: _351  and  _352
REMARK  121  A    between atoms: _357  and  _359
REMARK  122  A    between atoms: _359  and  _360
REMARK  123  A    between atoms: _359  and  _362
REMARK  124  A    between atoms: _362  and  _363
REMARK  125  A    between atoms: _368  and  _369
REMARK  126  A    between atoms: _371  and  _373
REMARK  127  A    between atoms: _373  and  _374
REMARK  128  A    between atoms: _373  and  _376
REMARK  129  A    between atoms: _378  and  _380
REMARK  130  A    between atoms: _380  and  _381
REMARK  131  A    between atoms: _380  and  _383
REMARK  132  A    between atoms: _383  and  _384
REMARK  133  A    between atoms: _387  and  _389
REMARK  134  A    between atoms: _389  and  _390
REMARK  135  A    between atoms: _389  and  _392
REMARK  136  A    between atoms: _392  and  _393
REMARK  137  A    between atoms: _393  and  _394
REMARK                            x       y       z     vdW  Elec       q    Type
REMARK                         _______ _______ _______ _____ _____    ______ ____
ROOT
ATOM      1  O   HOH     1      11.359  16.600  43.729  0.00  0.00    +0.000 OA
ENDROOT
TORSDOF 0
REMARK  Name = ../refined-set-2016/3pcf/3pcf_pocket.pdb
REMARK  137 active torsions:
REMARK  status: ('A' for Active; 'I' for Inactive)
REMARK    1  A    between atoms: _1  and  _3
REMARK    2  A    between atoms: _3  and  _4
REMARK    3  A    between atoms: _3  and  _6
REMARK    4  A    between atoms: _6  and  _7
REMARK    5  A    between atoms: _7  and  _8
REMARK    6  A    between atoms: _13  and  _15
REMARK    7  A    between atoms: _15  and  _16
REMARK    8  A    between atoms: _15  and  _18
REMARK    9  A    between atoms: _18  and  _19
REMARK   10  A    between atoms: _22  and  _24
REMARK   11  A    between atoms: _24  and  _25
REMARK   12  A    between atoms: _28  and  _30
REMARK   13  A    between atoms: _30  and  _31
REMARK   14  A    between atoms: _34  and  _35
REMARK   15  A    between atoms: _40  and  _42
REMARK   16  A    between atoms: _42  and  _43
REMARK   17  A    between atoms: _42  and  _45
REMARK   18  A    between atoms: _45  and  _46
REMARK   19  A    between atoms: _51  and  _52
REMARK   20  A    between atoms: _54  and  _56
REMARK   21  A    between atoms: _56  and  _57
REMARK   22  A    between atoms: _56  and  _59
REMARK   23  A    between atoms: _62  and  _64
REMARK   24  A    between atoms: _64  and  _65
REMARK   25  A    between atoms: _64  and  _67
REMARK   26  A    between atoms: _67  and  _68
REMARK   27  A    between atoms: _71  and  _73
REMARK   28  A    between atoms: _73  and  _74
REMARK   29  A    between atoms: _77  and  _79
REMARK   30  A    between atoms: _79  and  _80
REMARK   31  A    between atoms: _79  and  _82
REMARK   32  A    between atoms: _82  and  _83
REMARK   33  A    between atoms: _83  and  _84
REMARK   34  A    between atoms: _84  and  _85
REMARK   35  A    between atoms: _94  and  _96
REMARK   36  A    between atoms: _96  and  _97
REMARK   37  A    between atoms: _99  and  _101
REMARK   38  A    between atoms: _101  and  _102
REMARK   39  A    between atoms: _101  and  _104
REMARK   40  A    between atoms: _104  and  _105
REMARK   41  A    between atoms: _108  and  _110
REMARK   42  A    between atoms: _110  and  _111
REMARK   43  A    between atoms: _110  and  _113
REMARK   44  A    between atoms: _113  and  _114
REMARK   45  A    between atoms: _119  and  _121
REMARK   46  A    between atoms: _121  and  _122
REMARK   47  A    between atoms: _121  and  _124
REMARK   48  A    between atoms: _124  and  _125
REMARK   49  A    between atoms: _130  and  _131
REMARK   50  A    between atoms: _133  and  _135
REMARK   51  A    between atoms: _135  and  _136
REMARK   52  A    between atoms: _135  and  _138
REMARK   53  A    between atoms: _138  and  _139
REMARK   54  A    between atoms: _139  and  _140
REMARK   55  A    between atoms: _140  and  _141
REMARK   56  A    between atoms: _141  and  _142
REMARK   57  A    between atoms: _146  and  _148
REMARK   58  A    between atoms: _148  and  _149
REMARK   59  A    between atoms: _148  and  _151
REMARK   60  A    between atoms: _151  and  _152
REMARK   61  A    between atoms: _155  and  _157
REMARK   62  A    between atoms: _157  and  _158
REMARK   63  A    between atoms: _157  and  _160
REMARK   64  A    between atoms: _160  and  _161
REMARK   65  A    between atoms: _163  and  _165
REMARK   66  A    between atoms: _165  and  _166
REMARK   67  A    between atoms: _165  and  _168
REMARK   68  A    between atoms: _168  and  _169
REMARK   69  A    between atoms: _169  and  _170
REMARK   70  A    between atoms: _170  and  _171
REMARK   71  A    between atoms: _180  and  _182
REMARK   72  A    between atoms: _182  and  _183
REMARK   73  A    between atoms: _182  and  _185
REMARK   74  A    between atoms: _185  and  _186
REMARK   75  A    between atoms: _196  and  _198
REMARK   76  A    between atoms: _198  and  _199
REMARK   77  A    between atoms: _202  and  _204
REMARK   78  A    between atoms: _204  and  _205
REMARK   79  A    between atoms: _204  and  _207
REMARK   80  A    between atoms: _207  and  _208
REMARK   81  A    between atoms: _213  and  _214
REMARK   82  A    between atoms: _216  and  _218
REMARK   83  A    between atoms: _218  and  _219
REMARK   84  A    between atoms: _218  and  _221
REMARK   85  A    between atoms: _221  and  _222
REMARK   86  A    between atoms: _227  and  _228
REMARK   87  A    between atoms: _231  and  _232
REMARK   88  A    between atoms: _237  and  _239
REMARK   89  A    between atoms: _239  and  _240
REMARK   90  A    between atoms: _239  and  _242
REMARK   91  A    between atoms: _242  and  _243
REMARK   92  A    between atoms: _253  and  _255
REMARK   93  A    between atoms: _255  and  _256
REMARK   94  A    between atoms: _255  and  _258
REMARK   95  A    between atoms: _258  and  _259
REMARK   96  A    between atoms: _259  and  _260
REMARK   97  A    between atoms: _260  and  _261
REMARK   98  A    between atoms: _270  and  _272
REMARK   99  A    between atoms: _272  and  _273
REMARK  100  A    between atoms: _272  and  _275
REMARK  101  A    between atoms: _275  and  _276
REMARK  102  A    between atoms: _281  and  _283
REMARK  103  A    between atoms: _283  and  _284
REMARK  104  A    between atoms: _283  and  _286
REMARK  105  A    between atoms: _286  and  _287
REMARK  106  A    between atoms: _287  and  _288
REMARK  107  A    between atoms: _288  and  _289
REMARK  108  A    between atoms: _299  and  _300
REMARK  109  A    between atoms: _305  and  _307
REMARK  110  A    between atoms: _318  and  _321
REMARK  111  A    between atoms: _321  and  _322
REMARK  112  A    between atoms: _327  and  _328
REMARK  113  A    between atoms: _336  and  _338
REMARK  114  A    between atoms: _338  and  _339
REMARK  115  A    between atoms: _338  and  _341
REMARK  116  A    between atoms: _341  and  _342
REMARK  117  A    between atoms: _345  and  _347
REMARK  118  A    between atoms: _347  and  _348
REMARK  119  A    between atoms: _347  and  _350
REMARK  120  A    between atoms: _351  and  _352
REMARK  121  A    between atoms: _357  and  _359
REMARK  122  A    between atoms: _359  and  _360
REMARK  123  A    between atoms: _359  and  _362
REMARK  124  A    between atoms: _362  and  _363
REMARK  125  A    between atoms: _368  and  _369
REMARK  126  A    between atoms: _371  and  _373
REMARK  127  A    between atoms: _373  and  _374
REMARK  128  A    between atoms: _373  and  _376
REMARK  129  A    between atoms: _378  and  _380
REMARK  130  A    between atoms: _380  and  _381
REMARK  131  A    between atoms: _380  and  _383
REMARK  132  A    between atoms: _383  and  _384
REMARK  133  A    between atoms: _387  and  _389
REMARK  134  A    between atoms: _389  and  _390
REMARK  135  A    between atoms: _389  and  _392
REMARK  136  A    between atoms: _392  and  _393
REMARK  137  A    between atoms: _393  and  _394
REMARK                            x       y       z     vdW  Elec       q    Type
REMARK                         _______ _______ _______ _____ _____    ______ ____
ROOT
ATOM      1  O   HOH     1       8.733  10.303  45.980  0.00  0.00    +0.000 OA
ENDROOT
TORSDOF 0
REMARK  Name = ../refined-set-2016/3pcf/3pcf_pocket.pdb
REMARK  137 active torsions:
REMARK  status: ('A' for Active; 'I' for Inactive)
REMARK    1  A    between atoms: _1  and  _3
REMARK    2  A    between atoms: _3  and  _4
REMARK    3  A    between atoms: _3  and  _6
REMARK    4  A    between atoms: _6  and  _7
REMARK    5  A    between atoms: _7  and  _8
REMARK    6  A    between atoms: _13  and  _15
REMARK    7  A    between atoms: _15  and  _16
REMARK    8  A    between atoms: _15  and  _18
REMARK    9  A    between atoms: _18  and  _19
REMARK   10  A    between atoms: _22  and  _24
REMARK   11  A    between atoms: _24  and  _25
REMARK   12  A    between atoms: _28  and  _30
REMARK   13  A    between atoms: _30  and  _31
REMARK   14  A    between atoms: _34  and  _35
REMARK   15  A    between atoms: _40  and  _42
REMARK   16  A    between atoms: _42  and  _43
REMARK   17  A    between atoms: _42  and  _45
REMARK   18  A    between atoms: _45  and  _46
REMARK   19  A    between atoms: _51  and  _52
REMARK   20  A    between atoms: _54  and  _56
REMARK   21  A    between atoms: _56  and  _57
REMARK   22  A    between atoms: _56  and  _59
REMARK   23  A    between atoms: _62  and  _64
REMARK   24  A    between atoms: _64  and  _65
REMARK   25  A    between atoms: _64  and  _67
REMARK   26  A    between atoms: _67  and  _68
REMARK   27  A    between atoms: _71  and  _73
REMARK   28  A    between atoms: _73  and  _74
REMARK   29  A    between atoms: _77  and  _79
REMARK   30  A    between atoms: _79  and  _80
REMARK   31  A    between atoms: _79  and  _82
REMARK   32  A    between atoms: _82  and  _83
REMARK   33  A    between atoms: _83  and  _84
REMARK   34  A    between atoms: _84  and  _85
REMARK   35  A    between atoms: _94  and  _96
REMARK   36  A    between atoms: _96  and  _97
REMARK   37  A    between atoms: _99  and  _101
REMARK   38  A    between atoms: _101  and  _102
REMARK   39  A    between atoms: _101  and  _104
REMARK   40  A    between atoms: _104  and  _105
REMARK   41  A    between atoms: _108  and  _110
REMARK   42  A    between atoms: _110  and  _111
REMARK   43  A    between atoms: _110  and  _113
REMARK   44  A    between atoms: _113  and  _114
REMARK   45  A    between atoms: _119  and  _121
REMARK   46  A    between atoms: _121  and  _122
REMARK   47  A    between atoms: _121  and  _124
REMARK   48  A    between atoms: _124  and  _125
REMARK   49  A    between atoms: _130  and  _131
REMARK   50  A    between atoms: _133  and  _135
REMARK   51  A    between atoms: _135  and  _136
REMARK   52  A    between atoms: _135  and  _138
REMARK   53  A    between atoms: _138  and  _139
REMARK   54  A    between atoms: _139  and  _140
REMARK   55  A    between atoms: _140  and  _141
REMARK   56  A    between atoms: _141  and  _142
REMARK   57  A    between atoms: _146  and  _148
REMARK   58  A    between atoms: _148  and  _149
REMARK   59  A    between atoms: _148  and  _151
REMARK   60  A    between atoms: _151  and  _152
REMARK   61  A    between atoms: _155  and  _157
REMARK   62  A    between atoms: _157  and  _158
REMARK   63  A    between atoms: _157  and  _160
REMARK   64  A    between atoms: _160  and  _161
REMARK   65  A    between atoms: _163  and  _165
REMARK   66  A    between atoms: _165  and  _166
REMARK   67  A    between atoms: _165  and  _168
REMARK   68  A    between atoms: _168  and  _169
REMARK   69  A    between atoms: _169  and  _170
REMARK   70  A    between atoms: _170  and  _171
REMARK   71  A    between atoms: _180  and  _182
REMARK   72  A    between atoms: _182  and  _183
REMARK   73  A    between atoms: _182  and  _185
REMARK   74  A    between atoms: _185  and  _186
REMARK   75  A    between atoms: _196  and  _198
REMARK   76  A    between atoms: _198  and  _199
REMARK   77  A    between atoms: _202  and  _204
REMARK   78  A    between atoms: _204  and  _205
REMARK   79  A    between atoms: _204  and  _207
REMARK   80  A    between atoms: _207  and  _208
REMARK   81  A    between atoms: _213  and  _214
REMARK   82  A    between atoms: _216  and  _218
REMARK   83  A    between atoms: _218  and  _219
REMARK   84  A    between atoms: _218  and  _221
REMARK   85  A    between atoms: _221  and  _222
REMARK   86  A    between atoms: _227  and  _228
REMARK   87  A    between atoms: _231  and  _232
REMARK   88  A    between atoms: _237  and  _239
REMARK   89  A    between atoms: _239  and  _240
REMARK   90  A    between atoms: _239  and  _242
REMARK   91  A    between atoms: _242  and  _243
REMARK   92  A    between atoms: _253  and  _255
REMARK   93  A    between atoms: _255  and  _256
REMARK   94  A    between atoms: _255  and  _258
REMARK   95  A    between atoms: _258  and  _259
REMARK   96  A    between atoms: _259  and  _260
REMARK   97  A    between atoms: _260  and  _261
REMARK   98  A    between atoms: _270  and  _272
REMARK   99  A    between atoms: _272  and  _273
REMARK  100  A    between atoms: _272  and  _275
REMARK  101  A    between atoms: _275  and  _276
REMARK  102  A    between atoms: _281  and  _283
REMARK  103  A    between atoms: _283  and  _284
REMARK  104  A    between atoms: _283  and  _286
REMARK  105  A    between atoms: _286  and  _287
REMARK  106  A    between atoms: _287  and  _288
REMARK  107  A    between atoms: _288  and  _289
REMARK  108  A    between atoms: _299  and  _300
REMARK  109  A    between atoms: _305  and  _307
REMARK  110  A    between atoms: _318  and  _321
REMARK  111  A    between atoms: _321  and  _322
REMARK  112  A    between atoms: _327  and  _328
REMARK  113  A    between atoms: _336  and  _338
REMARK  114  A    between atoms: _338  and  _339
REMARK  115  A    between atoms: _338  and  _341
REMARK  116  A    between atoms: _341  and  _342
REMARK  117  A    between atoms: _345  and  _347
REMARK  118  A    between atoms: _347  and  _348
REMARK  119  A    between atoms: _347  and  _350
REMARK  120  A    between atoms: _351  and  _352
REMARK  121  A    between atoms: _357  and  _359
REMARK  122  A    between atoms: _359  and  _360
REMARK  123  A    between atoms: _359  and  _362
REMARK  124  A    between atoms: _362  and  _363
REMARK  125  A    between atoms: _368  and  _369
REMARK  126  A    between atoms: _371  and  _373
REMARK  127  A    between atoms: _373  and  _374
REMARK  128  A    between atoms: _373  and  _376
REMARK  129  A    between atoms: _378  and  _380
REMARK  130  A    between atoms: _380  and  _381
REMARK  131  A    between atoms: _380  and  _383
REMARK  132  A    between atoms: _383  and  _384
REMARK  133  A    between atoms: _387  and  _389
REMARK  134  A    between atoms: _389  and  _390
REMARK  135  A    between atoms: _389  and  _392
REMARK  136  A    between atoms: _392  and  _393
REMARK  137  A    between atoms: _393  and  _394
REMARK                            x       y       z     vdW  Elec       q    Type
REMARK                         _______ _______ _______ _____ _____    ______ ____
ROOT
ATOM      1  O   HOH     1      16.397  16.583  40.357  0.00  0.00    +0.000 OA
ENDROOT
TORSDOF 0
REMARK  Name = ../refined-set-2016/3pcf/3pcf_pocket.pdb
REMARK  137 active torsions:
REMARK  status: ('A' for Active; 'I' for Inactive)
REMARK    1  A    between atoms: _1  and  _3
REMARK    2  A    between atoms: _3  and  _4
REMARK    3  A    between atoms: _3  and  _6
REMARK    4  A    between atoms: _6  and  _7
REMARK    5  A    between atoms: _7  and  _8
REMARK    6  A    between atoms: _13  and  _15
REMARK    7  A    between atoms: _15  and  _16
REMARK    8  A    between atoms: _15  and  _18
REMARK    9  A    between atoms: _18  and  _19
REMARK   10  A    between atoms: _22  and  _24
REMARK   11  A    between atoms: _24  and  _25
REMARK   12  A    between atoms: _28  and  _30
REMARK   13  A    between atoms: _30  and  _31
REMARK   14  A    between atoms: _34  and  _35
REMARK   15  A    between atoms: _40  and  _42
REMARK   16  A    between atoms: _42  and  _43
REMARK   17  A    between atoms: _42  and  _45
REMARK   18  A    between atoms: _45  and  _46
REMARK   19  A    between atoms: _51  and  _52
REMARK   20  A    between atoms: _54  and  _56
REMARK   21  A    between atoms: _56  and  _57
REMARK   22  A    between atoms: _56  and  _59
REMARK   23  A    between atoms: _62  and  _64
REMARK   24  A    between atoms: _64  and  _65
REMARK   25  A    between atoms: _64  and  _67
REMARK   26  A    between atoms: _67  and  _68
REMARK   27  A    between atoms: _71  and  _73
REMARK   28  A    between atoms: _73  and  _74
REMARK   29  A    between atoms: _77  and  _79
REMARK   30  A    between atoms: _79  and  _80
REMARK   31  A    between atoms: _79  and  _82
REMARK   32  A    between atoms: _82  and  _83
REMARK   33  A    between atoms: _83  and  _84
REMARK   34  A    between atoms: _84  and  _85
REMARK   35  A    between atoms: _94  and  _96
REMARK   36  A    between atoms: _96  and  _97
REMARK   37  A    between atoms: _99  and  _101
REMARK   38  A    between atoms: _101  and  _102
REMARK   39  A    between atoms: _101  and  _104
REMARK   40  A    between atoms: _104  and  _105
REMARK   41  A    between atoms: _108  and  _110
REMARK   42  A    between atoms: _110  and  _111
REMARK   43  A    between atoms: _110  and  _113
REMARK   44  A    between atoms: _113  and  _114
REMARK   45  A    between atoms: _119  and  _121
REMARK   46  A    between atoms: _121  and  _122
REMARK   47  A    between atoms: _121  and  _124
REMARK   48  A    between atoms: _124  and  _125
REMARK   49  A    between atoms: _130  and  _131
REMARK   50  A    between atoms: _133  and  _135
REMARK   51  A    between atoms: _135  and  _136
REMARK   52  A    between atoms: _135  and  _138
REMARK   53  A    between atoms: _138  and  _139
REMARK   54  A    between atoms: _139  and  _140
REMARK   55  A    between atoms: _140  and  _141
REMARK   56  A    between atoms: _141  and  _142
REMARK   57  A    between atoms: _146  and  _148
REMARK   58  A    between atoms: _148  and  _149
REMARK   59  A    between atoms: _148  and  _151
REMARK   60  A    between atoms: _151  and  _152
REMARK   61  A    between atoms: _155  and  _157
REMARK   62  A    between atoms: _157  and  _158
REMARK   63  A    between atoms: _157  and  _160
REMARK   64  A    between atoms: _160  and  _161
REMARK   65  A    between atoms: _163  and  _165
REMARK   66  A    between atoms: _165  and  _166
REMARK   67  A    between atoms: _165  and  _168
REMARK   68  A    between atoms: _168  and  _169
REMARK   69  A    between atoms: _169  and  _170
REMARK   70  A    between atoms: _170  and  _171
REMARK   71  A    between atoms: _180  and  _182
REMARK   72  A    between atoms: _182  and  _183
REMARK   73  A    between atoms: _182  and  _185
REMARK   74  A    between atoms: _185  and  _186
REMARK   75  A    between atoms: _196  and  _198
REMARK   76  A    between atoms: _198  and  _199
REMARK   77  A    between atoms: _202  and  _204
REMARK   78  A    between atoms: _204  and  _205
REMARK   79  A    between atoms: _204  and  _207
REMARK   80  A    between atoms: _207  and  _208
REMARK   81  A    between atoms: _213  and  _214
REMARK   82  A    between atoms: _216  and  _218
REMARK   83  A    between atoms: _218  and  _219
REMARK   84  A    between atoms: _218  and  _221
REMARK   85  A    between atoms: _221  and  _222
REMARK   86  A    between atoms: _227  and  _228
REMARK   87  A    between atoms: _231  and  _232
REMARK   88  A    between atoms: _237  and  _239
REMARK   89  A    between atoms: _239  and  _240
REMARK   90  A    between atoms: _239  and  _242
REMARK   91  A    between atoms: _242  and  _243
REMARK   92  A    between atoms: _253  and  _255
REMARK   93  A    between atoms: _255  and  _256
REMARK   94  A    between atoms: _255  and  _258
REMARK   95  A    between atoms: _258  and  _259
REMARK   96  A    between atoms: _259  and  _260
REMARK   97  A    between atoms: _260  and  _261
REMARK   98  A    between atoms: _270  and  _272
REMARK   99  A    between atoms: _272  and  _273
REMARK  100  A    between atoms: _272  and  _275
REMARK  101  A    between atoms: _275  and  _276
REMARK  102  A    between atoms: _281  and  _283
REMARK  103  A    between atoms: _283  and  _284
REMARK  104  A    between atoms: _283  and  _286
REMARK  105  A    between atoms: _286  and  _287
REMARK  106  A    between atoms: _287  and  _288
REMARK  107  A    between atoms: _288  and  _289
REMARK  108  A    between atoms: _299  and  _300
REMARK  109  A    between atoms: _305  and  _307
REMARK  110  A    between atoms: _318  and  _321
REMARK  111  A    between atoms: _321  and  _322
REMARK  112  A    between atoms: _327  and  _328
REMARK  113  A    between atoms: _336  and  _338
REMARK  114  A    between atoms: _338  and  _339
REMARK  115  A    between atoms: _338  and  _341
REMARK  116  A    between atoms: _341  and  _342
REMARK  117  A    between atoms: _345  and  _347
REMARK  118  A    between atoms: _347  and  _348
REMARK  119  A    between atoms: _347  and  _350
REMARK  120  A    between atoms: _351  and  _352
REMARK  121  A    between atoms: _357  and  _359
REMARK  122  A    between atoms: _359  and  _360
REMARK  123  A    between atoms: _359  and  _362
REMARK  124  A    between atoms: _362  and  _363
REMARK  125  A    between atoms: _368  and  _369
REMARK  126  A    between atoms: _371  and  _373
REMARK  127  A    between atoms: _373  and  _374
REMARK  128  A    between atoms: _373  and  _376
REMARK  129  A    between atoms: _378  and  _380
REMARK  130  A    between atoms: _380  and  _381
REMARK  131  A    between atoms: _380  and  _383
REMARK  132  A    between atoms: _383  and  _384
REMARK  133  A    between atoms: _387  and  _389
REMARK  134  A    between atoms: _389  and  _390
REMARK  135  A    between atoms: _389  and  _392
REMARK  136  A    between atoms: _392  and  _393
REMARK  137  A    between atoms: _393  and  _394
REMARK                            x       y       z     vdW  Elec       q    Type
REMARK                         _______ _______ _______ _____ _____    ______ ____
ROOT
ATOM      1  O   HOH     1       9.384  14.828  45.386  0.00  0.00    +0.000 OA
ENDROOT
TORSDOF 0
