REMARK  Name = ../refined-set-2016/2h4n/2h4n_pocket.pdb
REMARK  146 active torsions:
REMARK  status: ('A' for Active; 'I' for Inactive)
REMARK    1  A    between atoms: _1  and  _3
REMARK    2  A    between atoms: _3  and  _4
REMARK    3  A    between atoms: _3  and  _6
REMARK    4  A    between atoms: _6  and  _7
REMARK    5  A    between atoms: _17  and  _19
REMARK    6  A    between atoms: _19  and  _20
REMARK    7  A    between atoms: _19  and  _22
REMARK    8  A    between atoms: _22  and  _23
REMARK    9  A    between atoms: _28  and  _29
REMARK   10  A    between atoms: _31  and  _33
REMARK   11  A    between atoms: _33  and  _34
REMARK   12  A    between atoms: _33  and  _36
REMARK   13  A    between atoms: _36  and  _37
REMARK   14  A    between atoms: _40  and  _41
REMARK   15  A    between atoms: _46  and  _48
REMARK   16  A    between atoms: _48  and  _49
REMARK   17  A    between atoms: _48  and  _51
REMARK   18  A    between atoms: _51  and  _52
REMARK   19  A    between atoms: _57  and  _59
REMARK   20  A    between atoms: _59  and  _60
REMARK   21  A    between atoms: _63  and  _65
REMARK   22  A    between atoms: _65  and  _66
REMARK   23  A    between atoms: _65  and  _68
REMARK   24  A    between atoms: _68  and  _69
REMARK   25  A    between atoms: _74  and  _76
REMARK   26  A    between atoms: _76  and  _77
REMARK   27  A    between atoms: _76  and  _79
REMARK   28  A    between atoms: _79  and  _80
REMARK   29  A    between atoms: _80  and  _81
REMARK   30  A    between atoms: _84  and  _86
REMARK   31  A    between atoms: _86  and  _87
REMARK   32  A    between atoms: _86  and  _89
REMARK   33  A    between atoms: _89  and  _90
REMARK   34  A    between atoms: _93  and  _95
REMARK   35  A    between atoms: _95  and  _96
REMARK   36  A    between atoms: _95  and  _98
REMARK   37  A    between atoms: _98  and  _99
REMARK   38  A    between atoms: _99  and  _100
REMARK   39  A    between atoms: _105  and  _107
REMARK   40  A    between atoms: _107  and  _108
REMARK   41  A    between atoms: _107  and  _110
REMARK   42  A    between atoms: _110  and  _111
REMARK   43  A    between atoms: _117  and  _119
REMARK   44  A    between atoms: _123  and  _125
REMARK   45  A    between atoms: _130  and  _133
REMARK   46  A    between atoms: _133  and  _134
REMARK   47  A    between atoms: _142  and  _143
REMARK   48  A    between atoms: _151  and  _153
REMARK   49  A    between atoms: _153  and  _154
REMARK   50  A    between atoms: _153  and  _156
REMARK   51  A    between atoms: _156  and  _157
REMARK   52  A    between atoms: _157  and  _158
REMARK   53  A    between atoms: _161  and  _163
REMARK   54  A    between atoms: _163  and  _164
REMARK   55  A    between atoms: _163  and  _166
REMARK   56  A    between atoms: _166  and  _167
REMARK   57  A    between atoms: _172  and  _174
REMARK   58  A    between atoms: _174  and  _175
REMARK   59  A    between atoms: _174  and  _177
REMARK   60  A    between atoms: _177  and  _178
REMARK   61  A    between atoms: _178  and  _179
REMARK   62  A    between atoms: _182  and  _184
REMARK   63  A    between atoms: _184  and  _185
REMARK   64  A    between atoms: _184  and  _187
REMARK   65  A    between atoms: _187  and  _188
REMARK   66  A    between atoms: _191  and  _193
REMARK   67  A    between atoms: _193  and  _194
REMARK   68  A    between atoms: _193  and  _196
REMARK   69  A    between atoms: _196  and  _197
REMARK   70  A    between atoms: _198  and  ZN_411
REMARK   71  A    between atoms: _202  and  _204
REMARK   72  A    between atoms: _204  and  _205
REMARK   73  A    between atoms: _204  and  _207
REMARK   74  A    between atoms: _207  and  _208
REMARK   75  A    between atoms: _211  and  _213
REMARK   76  A    between atoms: _213  and  _214
REMARK   77  A    between atoms: _213  and  _216
REMARK   78  A    between atoms: _219  and  _221
REMARK   79  A    between atoms: _221  and  _222
REMARK   80  A    between atoms: _221  and  _224
REMARK   81  A    between atoms: _224  and  _225
REMARK   82  A    between atoms: _230  and  _232
REMARK   83  A    between atoms: _232  and  _233
REMARK   84  A    between atoms: _232  and  _235
REMARK   85  A    between atoms: _235  and  _236
REMARK   86  A    between atoms: _246  and  _248
REMARK   87  A    between atoms: _248  and  _249
REMARK   88  A    between atoms: _248  and  _251
REMARK   89  A    between atoms: _251  and  _252
REMARK   90  A    between atoms: _258  and  _260
REMARK   91  A    between atoms: _260  and  _261
REMARK   92  A    between atoms: _260  and  _263
REMARK   93  A    between atoms: _266  and  _268
REMARK   94  A    between atoms: _268  and  _269
REMARK   95  A    between atoms: _268  and  _271
REMARK   96  A    between atoms: _271  and  _272
REMARK   97  A    between atoms: _275  and  _277
REMARK   98  A    between atoms: _277  and  _278
REMARK   99  A    between atoms: _277  and  _280
REMARK  100  A    between atoms: _283  and  _285
REMARK  101  A    between atoms: _285  and  _286
REMARK  102  A    between atoms: _285  and  _288
REMARK  103  A    between atoms: _288  and  _289
REMARK  104  A    between atoms: _292  and  _294
REMARK  105  A    between atoms: _294  and  _295
REMARK  106  A    between atoms: _294  and  _297
REMARK  107  A    between atoms: _297  and  _298
REMARK  108  A    between atoms: _300  and  _302
REMARK  109  A    between atoms: _302  and  _303
REMARK  110  A    between atoms: _302  and  _305
REMARK  111  A    between atoms: _305  and  _306
REMARK  112  A    between atoms: _309  and  _311
REMARK  113  A    between atoms: _311  and  _312
REMARK  114  A    between atoms: _311  and  _314
REMARK  115  A    between atoms: _314  and  _315
REMARK  116  A    between atoms: _318  and  _320
REMARK  117  A    between atoms: _320  and  _321
REMARK  118  A    between atoms: _320  and  _323
REMARK  119  A    between atoms: _323  and  _324
REMARK  120  A    between atoms: _328  and  _329
REMARK  121  A    between atoms: _335  and  _336
REMARK  122  A    between atoms: _341  and  _343
REMARK  123  A    between atoms: _343  and  _344
REMARK  124  A    between atoms: _343  and  _346
REMARK  125  A    between atoms: _346  and  _347
REMARK  126  A    between atoms: _350  and  _352
REMARK  127  A    between atoms: _352  and  _353
REMARK  128  A    between atoms: _352  and  _355
REMARK  129  A    between atoms: _355  and  _356
REMARK  130  A    between atoms: _359  and  _361
REMARK  131  A    between atoms: _361  and  _362
REMARK  132  A    between atoms: _361  and  _364
REMARK  133  A    between atoms: _367  and  _369
REMARK  134  A    between atoms: _369  and  _370
REMARK  135  A    between atoms: _369  and  _372
REMARK  136  A    between atoms: _372  and  _373
REMARK  137  A    between atoms: _383  and  _385
REMARK  138  A    between atoms: _385  and  _386
REMARK  139  A    between atoms: _385  and  _388
REMARK  140  A    between atoms: _388  and  _389
REMARK  141  A    between atoms: _394  and  _396
REMARK  142  A    between atoms: _396  and  _397
REMARK  143  A    between atoms: _396  and  _399
REMARK  144  A    between atoms: _399  and  _400
REMARK  145  A    between atoms: _400  and  _401
REMARK  146  A    between atoms: _401  and  _402
REMARK                            x       y       z     vdW  Elec       q    Type
REMARK                         _______ _______ _______ _____ _____    ______ ____
ROOT
ATOM      1  CG  TRP A   1       5.674  -0.042  12.120  0.00  0.00    -0.002 A 
ATOM      2  CD2 TRP A   1       4.320  -0.530  12.101  0.00  0.00    +0.013 A 
ATOM      3  CE3 TRP A   1       3.728  -1.777  12.368  0.00  0.00    +0.001 A 
ATOM      4  CZ3 TRP A   1       2.340  -1.901  12.253  0.00  0.00    +0.000 A 
ATOM      5  CH2 TRP A   1       1.545  -0.801  11.877  0.00  0.00    +0.001 A 
ATOM      6  CZ2 TRP A   1       2.101   0.428  11.609  0.00  0.00    +0.017 A 
ATOM      7  CE2 TRP A   1       3.490   0.552  11.724  0.00  0.00    +0.056 A 
ATOM      8  NE1 TRP A   1       4.300   1.639  11.525  0.00  0.00    -0.352 N 
ATOM      9  HE1 TRP A   1       3.978   2.586  11.240  0.00  0.00    +0.166 HD
ATOM     10  CD1 TRP A   1       5.607   1.280  11.761  0.00  0.00    +0.068 A 
ENDROOT
BRANCH   1  11
ATOM     11  CB  TRP A   1       6.919  -0.821  12.499  0.00  0.00    +0.053 C 
BRANCH  11  12
ATOM     12  CA  TRP A   1       7.644  -1.511  11.329  0.00  0.00    +0.137 C 
BRANCH  12  13
ATOM     13  N   TRP A   1       8.315  -0.534  10.465  0.00  0.00    -0.239 NA
ATOM     14  H   TRP A   1       8.153   0.480  10.631  0.00  0.00    +0.142 HD
ENDBRANCH  12  13
BRANCH  12  15
ATOM     15  C   TRP A   1       6.657  -2.375  10.560  0.00  0.00    +0.224 C 
ATOM     16  O   TRP A   1       6.116  -1.962   9.521  0.00  0.00    -0.287 OA
ENDBRANCH  12  15
ENDBRANCH  11  12
ENDBRANCH   1  11
TORSDOF 4
REMARK  Name = ../refined-set-2016/2h4n/2h4n_pocket.pdb
REMARK  146 active torsions:
REMARK  status: ('A' for Active; 'I' for Inactive)
REMARK    1  A    between atoms: _1  and  _3
REMARK    2  A    between atoms: _3  and  _4
REMARK    3  A    between atoms: _3  and  _6
REMARK    4  A    between atoms: _6  and  _7
REMARK    5  A    between atoms: _17  and  _19
REMARK    6  A    between atoms: _19  and  _20
REMARK    7  A    between atoms: _19  and  _22
REMARK    8  A    between atoms: _22  and  _23
REMARK    9  A    between atoms: _28  and  _29
REMARK   10  A    between atoms: _31  and  _33
REMARK   11  A    between atoms: _33  and  _34
REMARK   12  A    between atoms: _33  and  _36
REMARK   13  A    between atoms: _36  and  _37
REMARK   14  A    between atoms: _40  and  _41
REMARK   15  A    between atoms: _46  and  _48
REMARK   16  A    between atoms: _48  and  _49
REMARK   17  A    between atoms: _48  and  _51
REMARK   18  A    between atoms: _51  and  _52
REMARK   19  A    between atoms: _57  and  _59
REMARK   20  A    between atoms: _59  and  _60
REMARK   21  A    between atoms: _63  and  _65
REMARK   22  A    between atoms: _65  and  _66
REMARK   23  A    between atoms: _65  and  _68
REMARK   24  A    between atoms: _68  and  _69
REMARK   25  A    between atoms: _74  and  _76
REMARK   26  A    between atoms: _76  and  _77
REMARK   27  A    between atoms: _76  and  _79
REMARK   28  A    between atoms: _79  and  _80
REMARK   29  A    between atoms: _80  and  _81
REMARK   30  A    between atoms: _84  and  _86
REMARK   31  A    between atoms: _86  and  _87
REMARK   32  A    between atoms: _86  and  _89
REMARK   33  A    between atoms: _89  and  _90
REMARK   34  A    between atoms: _93  and  _95
REMARK   35  A    between atoms: _95  and  _96
REMARK   36  A    between atoms: _95  and  _98
REMARK   37  A    between atoms: _98  and  _99
REMARK   38  A    between atoms: _99  and  _100
REMARK   39  A    between atoms: _105  and  _107
REMARK   40  A    between atoms: _107  and  _108
REMARK   41  A    between atoms: _107  and  _110
REMARK   42  A    between atoms: _110  and  _111
REMARK   43  A    between atoms: _117  and  _119
REMARK   44  A    between atoms: _123  and  _125
REMARK   45  A    between atoms: _130  and  _133
REMARK   46  A    between atoms: _133  and  _134
REMARK   47  A    between atoms: _142  and  _143
REMARK   48  A    between atoms: _151  and  _153
REMARK   49  A    between atoms: _153  and  _154
REMARK   50  A    between atoms: _153  and  _156
REMARK   51  A    between atoms: _156  and  _157
REMARK   52  A    between atoms: _157  and  _158
REMARK   53  A    between atoms: _161  and  _163
REMARK   54  A    between atoms: _163  and  _164
REMARK   55  A    between atoms: _163  and  _166
REMARK   56  A    between atoms: _166  and  _167
REMARK   57  A    between atoms: _172  and  _174
REMARK   58  A    between atoms: _174  and  _175
REMARK   59  A    between atoms: _174  and  _177
REMARK   60  A    between atoms: _177  and  _178
REMARK   61  A    between atoms: _178  and  _179
REMARK   62  A    between atoms: _182  and  _184
REMARK   63  A    between atoms: _184  and  _185
REMARK   64  A    between atoms: _184  and  _187
REMARK   65  A    between atoms: _187  and  _188
REMARK   66  A    between atoms: _191  and  _193
REMARK   67  A    between atoms: _193  and  _194
REMARK   68  A    between atoms: _193  and  _196
REMARK   69  A    between atoms: _196  and  _197
REMARK   70  A    between atoms: _198  and  ZN_411
REMARK   71  A    between atoms: _202  and  _204
REMARK   72  A    between atoms: _204  and  _205
REMARK   73  A    between atoms: _204  and  _207
REMARK   74  A    between atoms: _207  and  _208
REMARK   75  A    between atoms: _211  and  _213
REMARK   76  A    between atoms: _213  and  _214
REMARK   77  A    between atoms: _213  and  _216
REMARK   78  A    between atoms: _219  and  _221
REMARK   79  A    between atoms: _221  and  _222
REMARK   80  A    between atoms: _221  and  _224
REMARK   81  A    between atoms: _224  and  _225
REMARK   82  A    between atoms: _230  and  _232
REMARK   83  A    between atoms: _232  and  _233
REMARK   84  A    between atoms: _232  and  _235
REMARK   85  A    between atoms: _235  and  _236
REMARK   86  A    between atoms: _246  and  _248
REMARK   87  A    between atoms: _248  and  _249
REMARK   88  A    between atoms: _248  and  _251
REMARK   89  A    between atoms: _251  and  _252
REMARK   90  A    between atoms: _258  and  _260
REMARK   91  A    between atoms: _260  and  _261
REMARK   92  A    between atoms: _260  and  _263
REMARK   93  A    between atoms: _266  and  _268
REMARK   94  A    between atoms: _268  and  _269
REMARK   95  A    between atoms: _268  and  _271
REMARK   96  A    between atoms: _271  and  _272
REMARK   97  A    between atoms: _275  and  _277
REMARK   98  A    between atoms: _277  and  _278
REMARK   99  A    between atoms: _277  and  _280
REMARK  100  A    between atoms: _283  and  _285
REMARK  101  A    between atoms: _285  and  _286
REMARK  102  A    between atoms: _285  and  _288
REMARK  103  A    between atoms: _288  and  _289
REMARK  104  A    between atoms: _292  and  _294
REMARK  105  A    between atoms: _294  and  _295
REMARK  106  A    between atoms: _294  and  _297
REMARK  107  A    between atoms: _297  and  _298
REMARK  108  A    between atoms: _300  and  _302
REMARK  109  A    between atoms: _302  and  _303
REMARK  110  A    between atoms: _302  and  _305
REMARK  111  A    between atoms: _305  and  _306
REMARK  112  A    between atoms: _309  and  _311
REMARK  113  A    between atoms: _311  and  _312
REMARK  114  A    between atoms: _311  and  _314
REMARK  115  A    between atoms: _314  and  _315
REMARK  116  A    between atoms: _318  and  _320
REMARK  117  A    between atoms: _320  and  _321
REMARK  118  A    between atoms: _320  and  _323
REMARK  119  A    between atoms: _323  and  _324
REMARK  120  A    between atoms: _328  and  _329
REMARK  121  A    between atoms: _335  and  _336
REMARK  122  A    between atoms: _341  and  _343
REMARK  123  A    between atoms: _343  and  _344
REMARK  124  A    between atoms: _343  and  _346
REMARK  125  A    between atoms: _346  and  _347
REMARK  126  A    between atoms: _350  and  _352
REMARK  127  A    between atoms: _352  and  _353
REMARK  128  A    between atoms: _352  and  _355
REMARK  129  A    between atoms: _355  and  _356
REMARK  130  A    between atoms: _359  and  _361
REMARK  131  A    between atoms: _361  and  _362
REMARK  132  A    between atoms: _361  and  _364
REMARK  133  A    between atoms: _367  and  _369
REMARK  134  A    between atoms: _369  and  _370
REMARK  135  A    between atoms: _369  and  _372
REMARK  136  A    between atoms: _372  and  _373
REMARK  137  A    between atoms: _383  and  _385
REMARK  138  A    between atoms: _385  and  _386
REMARK  139  A    between atoms: _385  and  _388
REMARK  140  A    between atoms: _388  and  _389
REMARK  141  A    between atoms: _394  and  _396
REMARK  142  A    between atoms: _396  and  _397
REMARK  143  A    between atoms: _396  and  _399
REMARK  144  A    between atoms: _399  and  _400
REMARK  145  A    between atoms: _400  and  _401
REMARK  146  A    between atoms: _401  and  _402
REMARK                            x       y       z     vdW  Elec       q    Type
REMARK                         _______ _______ _______ _____ _____    ______ ____
ROOT
ATOM      1  CG  TYR A   1       2.045  -7.141  11.980  0.00  0.00    -0.020 A 
ATOM      2  CD2 TYR A   1       1.644  -7.108  13.321  0.00  0.00    -0.001 A 
ATOM      3  CE2 TYR A   1       0.792  -6.110  13.796  0.00  0.00    +0.036 A 
ATOM      4  CZ  TYR A   1       0.330  -5.128  12.921  0.00  0.00    +0.134 A 
ATOM      5  CE1 TYR A   1       0.716  -5.134  11.581  0.00  0.00    +0.036 A 
ATOM      6  CD1 TYR A   1       1.573  -6.144  11.120  0.00  0.00    -0.001 A 
ENDROOT
BRANCH   4   7
ATOM      7  OH  TYR A   1      -0.531  -4.165  13.389  0.00  0.00    -0.506 OA
ATOM      8  HH  TYR A   1      -0.695  -4.312  14.354  0.00  0.00    +0.292 HD
ENDBRANCH   4   7
BRANCH   1   9
ATOM      9  CB  TYR A   1       2.966  -8.233  11.476  0.00  0.00    +0.051 C 
BRANCH   9  10
ATOM     10  CA  TYR A   1       4.455  -7.913  11.668  0.00  0.00    +0.137 C 
BRANCH  10  11
ATOM     11  N   TYR A   1       4.823  -6.765  10.859  0.00  0.00    -0.239 NA
ATOM     12  H   TYR A   1       4.842  -6.857   9.823  0.00  0.00    +0.142 HD
ENDBRANCH  10  11
BRANCH  10  13
ATOM     13  C   TYR A   1       5.316  -9.141  11.368  0.00  0.00    +0.224 C 
ATOM     14  O   TYR A   1       4.971 -10.256  11.758  0.00  0.00    -0.287 OA
ENDBRANCH  10  13
ENDBRANCH   9  10
ENDBRANCH   1   9
TORSDOF 5
REMARK  Name = ../refined-set-2016/2h4n/2h4n_pocket.pdb
REMARK  146 active torsions:
REMARK  status: ('A' for Active; 'I' for Inactive)
REMARK    1  A    between atoms: _1  and  _3
REMARK    2  A    between atoms: _3  and  _4
REMARK    3  A    between atoms: _3  and  _6
REMARK    4  A    between atoms: _6  and  _7
REMARK    5  A    between atoms: _17  and  _19
REMARK    6  A    between atoms: _19  and  _20
REMARK    7  A    between atoms: _19  and  _22
REMARK    8  A    between atoms: _22  and  _23
REMARK    9  A    between atoms: _28  and  _29
REMARK   10  A    between atoms: _31  and  _33
REMARK   11  A    between atoms: _33  and  _34
REMARK   12  A    between atoms: _33  and  _36
REMARK   13  A    between atoms: _36  and  _37
REMARK   14  A    between atoms: _40  and  _41
REMARK   15  A    between atoms: _46  and  _48
REMARK   16  A    between atoms: _48  and  _49
REMARK   17  A    between atoms: _48  and  _51
REMARK   18  A    between atoms: _51  and  _52
REMARK   19  A    between atoms: _57  and  _59
REMARK   20  A    between atoms: _59  and  _60
REMARK   21  A    between atoms: _63  and  _65
REMARK   22  A    between atoms: _65  and  _66
REMARK   23  A    between atoms: _65  and  _68
REMARK   24  A    between atoms: _68  and  _69
REMARK   25  A    between atoms: _74  and  _76
REMARK   26  A    between atoms: _76  and  _77
REMARK   27  A    between atoms: _76  and  _79
REMARK   28  A    between atoms: _79  and  _80
REMARK   29  A    between atoms: _80  and  _81
REMARK   30  A    between atoms: _84  and  _86
REMARK   31  A    between atoms: _86  and  _87
REMARK   32  A    between atoms: _86  and  _89
REMARK   33  A    between atoms: _89  and  _90
REMARK   34  A    between atoms: _93  and  _95
REMARK   35  A    between atoms: _95  and  _96
REMARK   36  A    between atoms: _95  and  _98
REMARK   37  A    between atoms: _98  and  _99
REMARK   38  A    between atoms: _99  and  _100
REMARK   39  A    between atoms: _105  and  _107
REMARK   40  A    between atoms: _107  and  _108
REMARK   41  A    between atoms: _107  and  _110
REMARK   42  A    between atoms: _110  and  _111
REMARK   43  A    between atoms: _117  and  _119
REMARK   44  A    between atoms: _123  and  _125
REMARK   45  A    between atoms: _130  and  _133
REMARK   46  A    between atoms: _133  and  _134
REMARK   47  A    between atoms: _142  and  _143
REMARK   48  A    between atoms: _151  and  _153
REMARK   49  A    between atoms: _153  and  _154
REMARK   50  A    between atoms: _153  and  _156
REMARK   51  A    between atoms: _156  and  _157
REMARK   52  A    between atoms: _157  and  _158
REMARK   53  A    between atoms: _161  and  _163
REMARK   54  A    between atoms: _163  and  _164
REMARK   55  A    between atoms: _163  and  _166
REMARK   56  A    between atoms: _166  and  _167
REMARK   57  A    between atoms: _172  and  _174
REMARK   58  A    between atoms: _174  and  _175
REMARK   59  A    between atoms: _174  and  _177
REMARK   60  A    between atoms: _177  and  _178
REMARK   61  A    between atoms: _178  and  _179
REMARK   62  A    between atoms: _182  and  _184
REMARK   63  A    between atoms: _184  and  _185
REMARK   64  A    between atoms: _184  and  _187
REMARK   65  A    between atoms: _187  and  _188
REMARK   66  A    between atoms: _191  and  _193
REMARK   67  A    between atoms: _193  and  _194
REMARK   68  A    between atoms: _193  and  _196
REMARK   69  A    between atoms: _196  and  _197
REMARK   70  A    between atoms: _198  and  ZN_411
REMARK   71  A    between atoms: _202  and  _204
REMARK   72  A    between atoms: _204  and  _205
REMARK   73  A    between atoms: _204  and  _207
REMARK   74  A    between atoms: _207  and  _208
REMARK   75  A    between atoms: _211  and  _213
REMARK   76  A    between atoms: _213  and  _214
REMARK   77  A    between atoms: _213  and  _216
REMARK   78  A    between atoms: _219  and  _221
REMARK   79  A    between atoms: _221  and  _222
REMARK   80  A    between atoms: _221  and  _224
REMARK   81  A    between atoms: _224  and  _225
REMARK   82  A    between atoms: _230  and  _232
REMARK   83  A    between atoms: _232  and  _233
REMARK   84  A    between atoms: _232  and  _235
REMARK   85  A    between atoms: _235  and  _236
REMARK   86  A    between atoms: _246  and  _248
REMARK   87  A    between atoms: _248  and  _249
REMARK   88  A    between atoms: _248  and  _251
REMARK   89  A    between atoms: _251  and  _252
REMARK   90  A    between atoms: _258  and  _260
REMARK   91  A    between atoms: _260  and  _261
REMARK   92  A    between atoms: _260  and  _263
REMARK   93  A    between atoms: _266  and  _268
REMARK   94  A    between atoms: _268  and  _269
REMARK   95  A    between atoms: _268  and  _271
REMARK   96  A    between atoms: _271  and  _272
REMARK   97  A    between atoms: _275  and  _277
REMARK   98  A    between atoms: _277  and  _278
REMARK   99  A    between atoms: _277  and  _280
REMARK  100  A    between atoms: _283  and  _285
REMARK  101  A    between atoms: _285  and  _286
REMARK  102  A    between atoms: _285  and  _288
REMARK  103  A    between atoms: _288  and  _289
REMARK  104  A    between atoms: _292  and  _294
REMARK  105  A    between atoms: _294  and  _295
REMARK  106  A    between atoms: _294  and  _297
REMARK  107  A    between atoms: _297  and  _298
REMARK  108  A    between atoms: _300  and  _302
REMARK  109  A    between atoms: _302  and  _303
REMARK  110  A    between atoms: _302  and  _305
REMARK  111  A    between atoms: _305  and  _306
REMARK  112  A    between atoms: _309  and  _311
REMARK  113  A    between atoms: _311  and  _312
REMARK  114  A    between atoms: _311  and  _314
REMARK  115  A    between atoms: _314  and  _315
REMARK  116  A    between atoms: _318  and  _320
REMARK  117  A    between atoms: _320  and  _321
REMARK  118  A    between atoms: _320  and  _323
REMARK  119  A    between atoms: _323  and  _324
REMARK  120  A    between atoms: _328  and  _329
REMARK  121  A    between atoms: _335  and  _336
REMARK  122  A    between atoms: _341  and  _343
REMARK  123  A    between atoms: _343  and  _344
REMARK  124  A    between atoms: _343  and  _346
REMARK  125  A    between atoms: _346  and  _347
REMARK  126  A    between atoms: _350  and  _352
REMARK  127  A    between atoms: _352  and  _353
REMARK  128  A    between atoms: _352  and  _355
REMARK  129  A    between atoms: _355  and  _356
REMARK  130  A    between atoms: _359  and  _361
REMARK  131  A    between atoms: _361  and  _362
REMARK  132  A    between atoms: _361  and  _364
REMARK  133  A    between atoms: _367  and  _369
REMARK  134  A    between atoms: _369  and  _370
REMARK  135  A    between atoms: _369  and  _372
REMARK  136  A    between atoms: _372  and  _373
REMARK  137  A    between atoms: _383  and  _385
REMARK  138  A    between atoms: _385  and  _386
REMARK  139  A    between atoms: _385  and  _388
REMARK  140  A    between atoms: _388  and  _389
REMARK  141  A    between atoms: _394  and  _396
REMARK  142  A    between atoms: _396  and  _397
REMARK  143  A    between atoms: _396  and  _399
REMARK  144  A    between atoms: _399  and  _400
REMARK  145  A    between atoms: _400  and  _401
REMARK  146  A    between atoms: _401  and  _402
REMARK                            x       y       z     vdW  Elec       q    Type
REMARK                         _______ _______ _______ _____ _____    ______ ____
ROOT
ATOM      1  C   SER A   1      -2.393  -3.175  23.378  0.00  0.00    +0.244 C 
ATOM      2  N   PRO A   2      -3.021  -4.332  23.111  0.00  0.00    -0.273 N 
ATOM      3  CA  PRO A   2      -4.206  -4.841  23.810  0.00  0.00    +0.140 C 
ATOM      4  CB  PRO A   2      -4.753  -5.853  22.816  0.00  0.00    +0.030 C 
ATOM      5  CG  PRO A   2      -3.486  -6.449  22.262  0.00  0.00    +0.024 C 
ATOM      6  CD  PRO A   2      -2.632  -5.233  22.009  0.00  0.00    +0.094 C 
ATOM      7  O   SER A   1      -1.396  -2.818  22.746  0.00  0.00    -0.273 OA
ENDROOT
BRANCH   3   8
ATOM      8  C   PRO A   2      -3.808  -5.532  25.115  0.00  0.00    +0.227 C 
ATOM      9  O   PRO A   2      -2.625  -5.577  25.471  0.00  0.00    -0.286 OA
ENDBRANCH   3   8
BRANCH   1  10
ATOM     10  CA  SER A   1      -2.957  -2.305  24.505  0.00  0.00    +0.175 C 
BRANCH  10  11
ATOM     11  N   SER A   1      -1.906  -1.401  24.956  0.00  0.00    -0.236 NA
ATOM     12  H   SER A   1      -1.438  -0.800  24.248  0.00  0.00    +0.142 HD
ENDBRANCH  10  11
BRANCH  10  13
ATOM     13  CB  SER A   1      -4.159  -1.507  23.984  0.00  0.00    +0.163 C 
BRANCH  13  14
ATOM     14  OG  SER A   1      -4.727  -0.709  25.007  0.00  0.00    -0.380 OA
ATOM     15  H   SER A   1      -5.031  -1.291  25.748  0.00  0.00    +0.211 HD
ENDBRANCH  13  14
ENDBRANCH  10  13
ENDBRANCH   1  10
TORSDOF 5
REMARK  Name = ../refined-set-2016/2h4n/2h4n_pocket.pdb
REMARK  146 active torsions:
REMARK  status: ('A' for Active; 'I' for Inactive)
REMARK    1  A    between atoms: _1  and  _3
REMARK    2  A    between atoms: _3  and  _4
REMARK    3  A    between atoms: _3  and  _6
REMARK    4  A    between atoms: _6  and  _7
REMARK    5  A    between atoms: _17  and  _19
REMARK    6  A    between atoms: _19  and  _20
REMARK    7  A    between atoms: _19  and  _22
REMARK    8  A    between atoms: _22  and  _23
REMARK    9  A    between atoms: _28  and  _29
REMARK   10  A    between atoms: _31  and  _33
REMARK   11  A    between atoms: _33  and  _34
REMARK   12  A    between atoms: _33  and  _36
REMARK   13  A    between atoms: _36  and  _37
REMARK   14  A    between atoms: _40  and  _41
REMARK   15  A    between atoms: _46  and  _48
REMARK   16  A    between atoms: _48  and  _49
REMARK   17  A    between atoms: _48  and  _51
REMARK   18  A    between atoms: _51  and  _52
REMARK   19  A    between atoms: _57  and  _59
REMARK   20  A    between atoms: _59  and  _60
REMARK   21  A    between atoms: _63  and  _65
REMARK   22  A    between atoms: _65  and  _66
REMARK   23  A    between atoms: _65  and  _68
REMARK   24  A    between atoms: _68  and  _69
REMARK   25  A    between atoms: _74  and  _76
REMARK   26  A    between atoms: _76  and  _77
REMARK   27  A    between atoms: _76  and  _79
REMARK   28  A    between atoms: _79  and  _80
REMARK   29  A    between atoms: _80  and  _81
REMARK   30  A    between atoms: _84  and  _86
REMARK   31  A    between atoms: _86  and  _87
REMARK   32  A    between atoms: _86  and  _89
REMARK   33  A    between atoms: _89  and  _90
REMARK   34  A    between atoms: _93  and  _95
REMARK   35  A    between atoms: _95  and  _96
REMARK   36  A    between atoms: _95  and  _98
REMARK   37  A    between atoms: _98  and  _99
REMARK   38  A    between atoms: _99  and  _100
REMARK   39  A    between atoms: _105  and  _107
REMARK   40  A    between atoms: _107  and  _108
REMARK   41  A    between atoms: _107  and  _110
REMARK   42  A    between atoms: _110  and  _111
REMARK   43  A    between atoms: _117  and  _119
REMARK   44  A    between atoms: _123  and  _125
REMARK   45  A    between atoms: _130  and  _133
REMARK   46  A    between atoms: _133  and  _134
REMARK   47  A    between atoms: _142  and  _143
REMARK   48  A    between atoms: _151  and  _153
REMARK   49  A    between atoms: _153  and  _154
REMARK   50  A    between atoms: _153  and  _156
REMARK   51  A    between atoms: _156  and  _157
REMARK   52  A    between atoms: _157  and  _158
REMARK   53  A    between atoms: _161  and  _163
REMARK   54  A    between atoms: _163  and  _164
REMARK   55  A    between atoms: _163  and  _166
REMARK   56  A    between atoms: _166  and  _167
REMARK   57  A    between atoms: _172  and  _174
REMARK   58  A    between atoms: _174  and  _175
REMARK   59  A    between atoms: _174  and  _177
REMARK   60  A    between atoms: _177  and  _178
REMARK   61  A    between atoms: _178  and  _179
REMARK   62  A    between atoms: _182  and  _184
REMARK   63  A    between atoms: _184  and  _185
REMARK   64  A    between atoms: _184  and  _187
REMARK   65  A    between atoms: _187  and  _188
REMARK   66  A    between atoms: _191  and  _193
REMARK   67  A    between atoms: _193  and  _194
REMARK   68  A    between atoms: _193  and  _196
REMARK   69  A    between atoms: _196  and  _197
REMARK   70  A    between atoms: _198  and  ZN_411
REMARK   71  A    between atoms: _202  and  _204
REMARK   72  A    between atoms: _204  and  _205
REMARK   73  A    between atoms: _204  and  _207
REMARK   74  A    between atoms: _207  and  _208
REMARK   75  A    between atoms: _211  and  _213
REMARK   76  A    between atoms: _213  and  _214
REMARK   77  A    between atoms: _213  and  _216
REMARK   78  A    between atoms: _219  and  _221
REMARK   79  A    between atoms: _221  and  _222
REMARK   80  A    between atoms: _221  and  _224
REMARK   81  A    between atoms: _224  and  _225
REMARK   82  A    between atoms: _230  and  _232
REMARK   83  A    between atoms: _232  and  _233
REMARK   84  A    between atoms: _232  and  _235
REMARK   85  A    between atoms: _235  and  _236
REMARK   86  A    between atoms: _246  and  _248
REMARK   87  A    between atoms: _248  and  _249
REMARK   88  A    between atoms: _248  and  _251
REMARK   89  A    between atoms: _251  and  _252
REMARK   90  A    between atoms: _258  and  _260
REMARK   91  A    between atoms: _260  and  _261
REMARK   92  A    between atoms: _260  and  _263
REMARK   93  A    between atoms: _266  and  _268
REMARK   94  A    between atoms: _268  and  _269
REMARK   95  A    between atoms: _268  and  _271
REMARK   96  A    between atoms: _271  and  _272
REMARK   97  A    between atoms: _275  and  _277
REMARK   98  A    between atoms: _277  and  _278
REMARK   99  A    between atoms: _277  and  _280
REMARK  100  A    between atoms: _283  and  _285
REMARK  101  A    between atoms: _285  and  _286
REMARK  102  A    between atoms: _285  and  _288
REMARK  103  A    between atoms: _288  and  _289
REMARK  104  A    between atoms: _292  and  _294
REMARK  105  A    between atoms: _294  and  _295
REMARK  106  A    between atoms: _294  and  _297
REMARK  107  A    between atoms: _297  and  _298
REMARK  108  A    between atoms: _300  and  _302
REMARK  109  A    between atoms: _302  and  _303
REMARK  110  A    between atoms: _302  and  _305
REMARK  111  A    between atoms: _305  and  _306
REMARK  112  A    between atoms: _309  and  _311
REMARK  113  A    between atoms: _311  and  _312
REMARK  114  A    between atoms: _311  and  _314
REMARK  115  A    between atoms: _314  and  _315
REMARK  116  A    between atoms: _318  and  _320
REMARK  117  A    between atoms: _320  and  _321
REMARK  118  A    between atoms: _320  and  _323
REMARK  119  A    between atoms: _323  and  _324
REMARK  120  A    between atoms: _328  and  _329
REMARK  121  A    between atoms: _335  and  _336
REMARK  122  A    between atoms: _341  and  _343
REMARK  123  A    between atoms: _343  and  _344
REMARK  124  A    between atoms: _343  and  _346
REMARK  125  A    between atoms: _346  and  _347
REMARK  126  A    between atoms: _350  and  _352
REMARK  127  A    between atoms: _352  and  _353
REMARK  128  A    between atoms: _352  and  _355
REMARK  129  A    between atoms: _355  and  _356
REMARK  130  A    between atoms: _359  and  _361
REMARK  131  A    between atoms: _361  and  _362
REMARK  132  A    between atoms: _361  and  _364
REMARK  133  A    between atoms: _367  and  _369
REMARK  134  A    between atoms: _369  and  _370
REMARK  135  A    between atoms: _369  and  _372
REMARK  136  A    between atoms: _372  and  _373
REMARK  137  A    between atoms: _383  and  _385
REMARK  138  A    between atoms: _385  and  _386
REMARK  139  A    between atoms: _385  and  _388
REMARK  140  A    between atoms: _388  and  _389
REMARK  141  A    between atoms: _394  and  _396
REMARK  142  A    between atoms: _396  and  _397
REMARK  143  A    between atoms: _396  and  _399
REMARK  144  A    between atoms: _399  and  _400
REMARK  145  A    between atoms: _400  and  _401
REMARK  146  A    between atoms: _401  and  _402
REMARK                            x       y       z     vdW  Elec       q    Type
REMARK                         _______ _______ _______ _____ _____    ______ ____
ROOT
ATOM      1  CB  ASN A   1      -2.406   1.813   5.350  0.00  0.00    +0.110 C 
ENDROOT
BRANCH   1   2
ATOM      2  CG  ASN A   1      -2.739   0.973   6.580  0.00  0.00    +0.221 C 
ATOM      3  ND2 ASN A   1      -3.371   1.599   7.553  0.00  0.00    -0.329 N 
ATOM      4 HD21 ASN A   1      -3.625   1.087   8.422  0.00  0.00    +0.145 HD
ATOM      5 HD22 ASN A   1      -3.615   2.605   7.452  0.00  0.00    +0.145 HD
ATOM      6  OD1 ASN A   1      -2.430  -0.215   6.656  0.00  0.00    -0.275 OA
ENDBRANCH   1   2
BRANCH   1   7
ATOM      7  CA  ASN A   1      -2.084   0.967   4.108  0.00  0.00    +0.142 C 
BRANCH   7   8
ATOM      8  N   ASN A   1      -3.244   0.171   3.699  0.00  0.00    -0.239 NA
ATOM      9  H   ASN A   1      -3.819  -0.306   4.422  0.00  0.00    +0.142 HD
ENDBRANCH   7   8
BRANCH   7  10
ATOM     10  C   ASN A   1      -0.815   0.145   4.338  0.00  0.00    +0.225 C 
ATOM     11  O   ASN A   1       0.169   0.650   4.888  0.00  0.00    -0.287 OA
ENDBRANCH   7  10
ENDBRANCH   1   7
TORSDOF 4
REMARK  Name = ../refined-set-2016/2h4n/2h4n_pocket.pdb
REMARK  146 active torsions:
REMARK  status: ('A' for Active; 'I' for Inactive)
REMARK    1  A    between atoms: _1  and  _3
REMARK    2  A    between atoms: _3  and  _4
REMARK    3  A    between atoms: _3  and  _6
REMARK    4  A    between atoms: _6  and  _7
REMARK    5  A    between atoms: _17  and  _19
REMARK    6  A    between atoms: _19  and  _20
REMARK    7  A    between atoms: _19  and  _22
REMARK    8  A    between atoms: _22  and  _23
REMARK    9  A    between atoms: _28  and  _29
REMARK   10  A    between atoms: _31  and  _33
REMARK   11  A    between atoms: _33  and  _34
REMARK   12  A    between atoms: _33  and  _36
REMARK   13  A    between atoms: _36  and  _37
REMARK   14  A    between atoms: _40  and  _41
REMARK   15  A    between atoms: _46  and  _48
REMARK   16  A    between atoms: _48  and  _49
REMARK   17  A    between atoms: _48  and  _51
REMARK   18  A    between atoms: _51  and  _52
REMARK   19  A    between atoms: _57  and  _59
REMARK   20  A    between atoms: _59  and  _60
REMARK   21  A    between atoms: _63  and  _65
REMARK   22  A    between atoms: _65  and  _66
REMARK   23  A    between atoms: _65  and  _68
REMARK   24  A    between atoms: _68  and  _69
REMARK   25  A    between atoms: _74  and  _76
REMARK   26  A    between atoms: _76  and  _77
REMARK   27  A    between atoms: _76  and  _79
REMARK   28  A    between atoms: _79  and  _80
REMARK   29  A    between atoms: _80  and  _81
REMARK   30  A    between atoms: _84  and  _86
REMARK   31  A    between atoms: _86  and  _87
REMARK   32  A    between atoms: _86  and  _89
REMARK   33  A    between atoms: _89  and  _90
REMARK   34  A    between atoms: _93  and  _95
REMARK   35  A    between atoms: _95  and  _96
REMARK   36  A    between atoms: _95  and  _98
REMARK   37  A    between atoms: _98  and  _99
REMARK   38  A    between atoms: _99  and  _100
REMARK   39  A    between atoms: _105  and  _107
REMARK   40  A    between atoms: _107  and  _108
REMARK   41  A    between atoms: _107  and  _110
REMARK   42  A    between atoms: _110  and  _111
REMARK   43  A    between atoms: _117  and  _119
REMARK   44  A    between atoms: _123  and  _125
REMARK   45  A    between atoms: _130  and  _133
REMARK   46  A    between atoms: _133  and  _134
REMARK   47  A    between atoms: _142  and  _143
REMARK   48  A    between atoms: _151  and  _153
REMARK   49  A    between atoms: _153  and  _154
REMARK   50  A    between atoms: _153  and  _156
REMARK   51  A    between atoms: _156  and  _157
REMARK   52  A    between atoms: _157  and  _158
REMARK   53  A    between atoms: _161  and  _163
REMARK   54  A    between atoms: _163  and  _164
REMARK   55  A    between atoms: _163  and  _166
REMARK   56  A    between atoms: _166  and  _167
REMARK   57  A    between atoms: _172  and  _174
REMARK   58  A    between atoms: _174  and  _175
REMARK   59  A    between atoms: _174  and  _177
REMARK   60  A    between atoms: _177  and  _178
REMARK   61  A    between atoms: _178  and  _179
REMARK   62  A    between atoms: _182  and  _184
REMARK   63  A    between atoms: _184  and  _185
REMARK   64  A    between atoms: _184  and  _187
REMARK   65  A    between atoms: _187  and  _188
REMARK   66  A    between atoms: _191  and  _193
REMARK   67  A    between atoms: _193  and  _194
REMARK   68  A    between atoms: _193  and  _196
REMARK   69  A    between atoms: _196  and  _197
REMARK   70  A    between atoms: _198  and  ZN_411
REMARK   71  A    between atoms: _202  and  _204
REMARK   72  A    between atoms: _204  and  _205
REMARK   73  A    between atoms: _204  and  _207
REMARK   74  A    between atoms: _207  and  _208
REMARK   75  A    between atoms: _211  and  _213
REMARK   76  A    between atoms: _213  and  _214
REMARK   77  A    between atoms: _213  and  _216
REMARK   78  A    between atoms: _219  and  _221
REMARK   79  A    between atoms: _221  and  _222
REMARK   80  A    between atoms: _221  and  _224
REMARK   81  A    between atoms: _224  and  _225
REMARK   82  A    between atoms: _230  and  _232
REMARK   83  A    between atoms: _232  and  _233
REMARK   84  A    between atoms: _232  and  _235
REMARK   85  A    between atoms: _235  and  _236
REMARK   86  A    between atoms: _246  and  _248
REMARK   87  A    between atoms: _248  and  _249
REMARK   88  A    between atoms: _248  and  _251
REMARK   89  A    between atoms: _251  and  _252
REMARK   90  A    between atoms: _258  and  _260
REMARK   91  A    between atoms: _260  and  _261
REMARK   92  A    between atoms: _260  and  _263
REMARK   93  A    between atoms: _266  and  _268
REMARK   94  A    between atoms: _268  and  _269
REMARK   95  A    between atoms: _268  and  _271
REMARK   96  A    between atoms: _271  and  _272
REMARK   97  A    between atoms: _275  and  _277
REMARK   98  A    between atoms: _277  and  _278
REMARK   99  A    between atoms: _277  and  _280
REMARK  100  A    between atoms: _283  and  _285
REMARK  101  A    between atoms: _285  and  _286
REMARK  102  A    between atoms: _285  and  _288
REMARK  103  A    between atoms: _288  and  _289
REMARK  104  A    between atoms: _292  and  _294
REMARK  105  A    between atoms: _294  and  _295
REMARK  106  A    between atoms: _294  and  _297
REMARK  107  A    between atoms: _297  and  _298
REMARK  108  A    between atoms: _300  and  _302
REMARK  109  A    between atoms: _302  and  _303
REMARK  110  A    between atoms: _302  and  _305
REMARK  111  A    between atoms: _305  and  _306
REMARK  112  A    between atoms: _309  and  _311
REMARK  113  A    between atoms: _311  and  _312
REMARK  114  A    between atoms: _311  and  _314
REMARK  115  A    between atoms: _314  and  _315
REMARK  116  A    between atoms: _318  and  _320
REMARK  117  A    between atoms: _320  and  _321
REMARK  118  A    between atoms: _320  and  _323
REMARK  119  A    between atoms: _323  and  _324
REMARK  120  A    between atoms: _328  and  _329
REMARK  121  A    between atoms: _335  and  _336
REMARK  122  A    between atoms: _341  and  _343
REMARK  123  A    between atoms: _343  and  _344
REMARK  124  A    between atoms: _343  and  _346
REMARK  125  A    between atoms: _346  and  _347
REMARK  126  A    between atoms: _350  and  _352
REMARK  127  A    between atoms: _352  and  _353
REMARK  128  A    between atoms: _352  and  _355
REMARK  129  A    between atoms: _355  and  _356
REMARK  130  A    between atoms: _359  and  _361
REMARK  131  A    between atoms: _361  and  _362
REMARK  132  A    between atoms: _361  and  _364
REMARK  133  A    between atoms: _367  and  _369
REMARK  134  A    between atoms: _369  and  _370
REMARK  135  A    between atoms: _369  and  _372
REMARK  136  A    between atoms: _372  and  _373
REMARK  137  A    between atoms: _383  and  _385
REMARK  138  A    between atoms: _385  and  _386
REMARK  139  A    between atoms: _385  and  _388
REMARK  140  A    between atoms: _388  and  _389
REMARK  141  A    between atoms: _394  and  _396
REMARK  142  A    between atoms: _396  and  _397
REMARK  143  A    between atoms: _396  and  _399
REMARK  144  A    between atoms: _399  and  _400
REMARK  145  A    between atoms: _400  and  _401
REMARK  146  A    between atoms: _401  and  _402
REMARK                            x       y       z     vdW  Elec       q    Type
REMARK                         _______ _______ _______ _____ _____    ______ ____
ROOT
ATOM      1  CA  ALA A   1      -4.417  -3.614   7.418  0.00  0.00    +0.133 C 
ATOM      2  CB  ALA A   1      -4.963  -3.307   8.813  0.00  0.00    +0.027 C 
ENDROOT
BRANCH   1   3
ATOM      3  N   ALA A   1      -3.047  -3.133   7.298  0.00  0.00    -0.239 NA
ATOM      4  H   ALA A   1      -2.870  -2.306   6.692  0.00  0.00    +0.142 HD
ENDBRANCH   1   3
BRANCH   1   5
ATOM      5  C   ALA A   1      -5.178  -2.810   6.380  0.00  0.00    +0.224 C 
ATOM      6  O   ALA A   1      -4.569  -2.241   5.478  0.00  0.00    -0.287 OA
ENDBRANCH   1   5
TORSDOF 2
REMARK  Name = ../refined-set-2016/2h4n/2h4n_pocket.pdb
REMARK  146 active torsions:
REMARK  status: ('A' for Active; 'I' for Inactive)
REMARK    1  A    between atoms: _1  and  _3
REMARK    2  A    between atoms: _3  and  _4
REMARK    3  A    between atoms: _3  and  _6
REMARK    4  A    between atoms: _6  and  _7
REMARK    5  A    between atoms: _17  and  _19
REMARK    6  A    between atoms: _19  and  _20
REMARK    7  A    between atoms: _19  and  _22
REMARK    8  A    between atoms: _22  and  _23
REMARK    9  A    between atoms: _28  and  _29
REMARK   10  A    between atoms: _31  and  _33
REMARK   11  A    between atoms: _33  and  _34
REMARK   12  A    between atoms: _33  and  _36
REMARK   13  A    between atoms: _36  and  _37
REMARK   14  A    between atoms: _40  and  _41
REMARK   15  A    between atoms: _46  and  _48
REMARK   16  A    between atoms: _48  and  _49
REMARK   17  A    between atoms: _48  and  _51
REMARK   18  A    between atoms: _51  and  _52
REMARK   19  A    between atoms: _57  and  _59
REMARK   20  A    between atoms: _59  and  _60
REMARK   21  A    between atoms: _63  and  _65
REMARK   22  A    between atoms: _65  and  _66
REMARK   23  A    between atoms: _65  and  _68
REMARK   24  A    between atoms: _68  and  _69
REMARK   25  A    between atoms: _74  and  _76
REMARK   26  A    between atoms: _76  and  _77
REMARK   27  A    between atoms: _76  and  _79
REMARK   28  A    between atoms: _79  and  _80
REMARK   29  A    between atoms: _80  and  _81
REMARK   30  A    between atoms: _84  and  _86
REMARK   31  A    between atoms: _86  and  _87
REMARK   32  A    between atoms: _86  and  _89
REMARK   33  A    between atoms: _89  and  _90
REMARK   34  A    between atoms: _93  and  _95
REMARK   35  A    between atoms: _95  and  _96
REMARK   36  A    between atoms: _95  and  _98
REMARK   37  A    between atoms: _98  and  _99
REMARK   38  A    between atoms: _99  and  _100
REMARK   39  A    between atoms: _105  and  _107
REMARK   40  A    between atoms: _107  and  _108
REMARK   41  A    between atoms: _107  and  _110
REMARK   42  A    between atoms: _110  and  _111
REMARK   43  A    between atoms: _117  and  _119
REMARK   44  A    between atoms: _123  and  _125
REMARK   45  A    between atoms: _130  and  _133
REMARK   46  A    between atoms: _133  and  _134
REMARK   47  A    between atoms: _142  and  _143
REMARK   48  A    between atoms: _151  and  _153
REMARK   49  A    between atoms: _153  and  _154
REMARK   50  A    between atoms: _153  and  _156
REMARK   51  A    between atoms: _156  and  _157
REMARK   52  A    between atoms: _157  and  _158
REMARK   53  A    between atoms: _161  and  _163
REMARK   54  A    between atoms: _163  and  _164
REMARK   55  A    between atoms: _163  and  _166
REMARK   56  A    between atoms: _166  and  _167
REMARK   57  A    between atoms: _172  and  _174
REMARK   58  A    between atoms: _174  and  _175
REMARK   59  A    between atoms: _174  and  _177
REMARK   60  A    between atoms: _177  and  _178
REMARK   61  A    between atoms: _178  and  _179
REMARK   62  A    between atoms: _182  and  _184
REMARK   63  A    between atoms: _184  and  _185
REMARK   64  A    between atoms: _184  and  _187
REMARK   65  A    between atoms: _187  and  _188
REMARK   66  A    between atoms: _191  and  _193
REMARK   67  A    between atoms: _193  and  _194
REMARK   68  A    between atoms: _193  and  _196
REMARK   69  A    between atoms: _196  and  _197
REMARK   70  A    between atoms: _198  and  ZN_411
REMARK   71  A    between atoms: _202  and  _204
REMARK   72  A    between atoms: _204  and  _205
REMARK   73  A    between atoms: _204  and  _207
REMARK   74  A    between atoms: _207  and  _208
REMARK   75  A    between atoms: _211  and  _213
REMARK   76  A    between atoms: _213  and  _214
REMARK   77  A    between atoms: _213  and  _216
REMARK   78  A    between atoms: _219  and  _221
REMARK   79  A    between atoms: _221  and  _222
REMARK   80  A    between atoms: _221  and  _224
REMARK   81  A    between atoms: _224  and  _225
REMARK   82  A    between atoms: _230  and  _232
REMARK   83  A    between atoms: _232  and  _233
REMARK   84  A    between atoms: _232  and  _235
REMARK   85  A    between atoms: _235  and  _236
REMARK   86  A    between atoms: _246  and  _248
REMARK   87  A    between atoms: _248  and  _249
REMARK   88  A    between atoms: _248  and  _251
REMARK   89  A    between atoms: _251  and  _252
REMARK   90  A    between atoms: _258  and  _260
REMARK   91  A    between atoms: _260  and  _261
REMARK   92  A    between atoms: _260  and  _263
REMARK   93  A    between atoms: _266  and  _268
REMARK   94  A    between atoms: _268  and  _269
REMARK   95  A    between atoms: _268  and  _271
REMARK   96  A    between atoms: _271  and  _272
REMARK   97  A    between atoms: _275  and  _277
REMARK   98  A    between atoms: _277  and  _278
REMARK   99  A    between atoms: _277  and  _280
REMARK  100  A    between atoms: _283  and  _285
REMARK  101  A    between atoms: _285  and  _286
REMARK  102  A    between atoms: _285  and  _288
REMARK  103  A    between atoms: _288  and  _289
REMARK  104  A    between atoms: _292  and  _294
REMARK  105  A    between atoms: _294  and  _295
REMARK  106  A    between atoms: _294  and  _297
REMARK  107  A    between atoms: _297  and  _298
REMARK  108  A    between atoms: _300  and  _302
REMARK  109  A    between atoms: _302  and  _303
REMARK  110  A    between atoms: _302  and  _305
REMARK  111  A    between atoms: _305  and  _306
REMARK  112  A    between atoms: _309  and  _311
REMARK  113  A    between atoms: _311  and  _312
REMARK  114  A    between atoms: _311  and  _314
REMARK  115  A    between atoms: _314  and  _315
REMARK  116  A    between atoms: _318  and  _320
REMARK  117  A    between atoms: _320  and  _321
REMARK  118  A    between atoms: _320  and  _323
REMARK  119  A    between atoms: _323  and  _324
REMARK  120  A    between atoms: _328  and  _329
REMARK  121  A    between atoms: _335  and  _336
REMARK  122  A    between atoms: _341  and  _343
REMARK  123  A    between atoms: _343  and  _344
REMARK  124  A    between atoms: _343  and  _346
REMARK  125  A    between atoms: _346  and  _347
REMARK  126  A    between atoms: _350  and  _352
REMARK  127  A    between atoms: _352  and  _353
REMARK  128  A    between atoms: _352  and  _355
REMARK  129  A    between atoms: _355  and  _356
REMARK  130  A    between atoms: _359  and  _361
REMARK  131  A    between atoms: _361  and  _362
REMARK  132  A    between atoms: _361  and  _364
REMARK  133  A    between atoms: _367  and  _369
REMARK  134  A    between atoms: _369  and  _370
REMARK  135  A    between atoms: _369  and  _372
REMARK  136  A    between atoms: _372  and  _373
REMARK  137  A    between atoms: _383  and  _385
REMARK  138  A    between atoms: _385  and  _386
REMARK  139  A    between atoms: _385  and  _388
REMARK  140  A    between atoms: _388  and  _389
REMARK  141  A    between atoms: _394  and  _396
REMARK  142  A    between atoms: _396  and  _397
REMARK  143  A    between atoms: _396  and  _399
REMARK  144  A    between atoms: _399  and  _400
REMARK  145  A    between atoms: _400  and  _401
REMARK  146  A    between atoms: _401  and  _402
REMARK                            x       y       z     vdW  Elec       q    Type
REMARK                         _______ _______ _______ _____ _____    ______ ____
ROOT
ATOM      1  CB  ASN A   1      -8.572   2.240   7.290  0.00  0.00    +0.110 C 
ENDROOT
BRANCH   1   2
ATOM      2  CG  ASN A   1      -7.249   1.949   7.925  0.00  0.00    +0.221 C 
ATOM      3  ND2 ASN A   1      -7.167   0.879   8.694  0.00  0.00    -0.329 N 
ATOM      4 HD21 ASN A   1      -6.272   0.649   9.171  0.00  0.00    +0.145 HD
ATOM      5 HD22 ASN A   1      -7.997   0.266   8.822  0.00  0.00    +0.145 HD
ATOM      6  OD1 ASN A   1      -6.301   2.706   7.739  0.00  0.00    -0.275 OA
ENDBRANCH   1   2
BRANCH   1   7
ATOM      7  CA  ASN A   1      -9.313   0.987   6.794  0.00  0.00    +0.142 C 
BRANCH   7   8
ATOM      8  N   ASN A   1      -8.449   0.094   6.027  0.00  0.00    -0.239 NA
ATOM      9  H   ASN A   1      -8.013   0.439   5.148  0.00  0.00    +0.142 HD
ENDBRANCH   7   8
BRANCH   7  10
ATOM     10  C   ASN A   1     -10.410   1.535   5.915  0.00  0.00    +0.225 C 
ATOM     11  O   ASN A   1     -10.204   1.766   4.723  0.00  0.00    -0.287 OA
ENDBRANCH   7  10
ENDBRANCH   1   7
TORSDOF 4
REMARK  Name = ../refined-set-2016/2h4n/2h4n_pocket.pdb
REMARK  146 active torsions:
REMARK  status: ('A' for Active; 'I' for Inactive)
REMARK    1  A    between atoms: _1  and  _3
REMARK    2  A    between atoms: _3  and  _4
REMARK    3  A    between atoms: _3  and  _6
REMARK    4  A    between atoms: _6  and  _7
REMARK    5  A    between atoms: _17  and  _19
REMARK    6  A    between atoms: _19  and  _20
REMARK    7  A    between atoms: _19  and  _22
REMARK    8  A    between atoms: _22  and  _23
REMARK    9  A    between atoms: _28  and  _29
REMARK   10  A    between atoms: _31  and  _33
REMARK   11  A    between atoms: _33  and  _34
REMARK   12  A    between atoms: _33  and  _36
REMARK   13  A    between atoms: _36  and  _37
REMARK   14  A    between atoms: _40  and  _41
REMARK   15  A    between atoms: _46  and  _48
REMARK   16  A    between atoms: _48  and  _49
REMARK   17  A    between atoms: _48  and  _51
REMARK   18  A    between atoms: _51  and  _52
REMARK   19  A    between atoms: _57  and  _59
REMARK   20  A    between atoms: _59  and  _60
REMARK   21  A    between atoms: _63  and  _65
REMARK   22  A    between atoms: _65  and  _66
REMARK   23  A    between atoms: _65  and  _68
REMARK   24  A    between atoms: _68  and  _69
REMARK   25  A    between atoms: _74  and  _76
REMARK   26  A    between atoms: _76  and  _77
REMARK   27  A    between atoms: _76  and  _79
REMARK   28  A    between atoms: _79  and  _80
REMARK   29  A    between atoms: _80  and  _81
REMARK   30  A    between atoms: _84  and  _86
REMARK   31  A    between atoms: _86  and  _87
REMARK   32  A    between atoms: _86  and  _89
REMARK   33  A    between atoms: _89  and  _90
REMARK   34  A    between atoms: _93  and  _95
REMARK   35  A    between atoms: _95  and  _96
REMARK   36  A    between atoms: _95  and  _98
REMARK   37  A    between atoms: _98  and  _99
REMARK   38  A    between atoms: _99  and  _100
REMARK   39  A    between atoms: _105  and  _107
REMARK   40  A    between atoms: _107  and  _108
REMARK   41  A    between atoms: _107  and  _110
REMARK   42  A    between atoms: _110  and  _111
REMARK   43  A    between atoms: _117  and  _119
REMARK   44  A    between atoms: _123  and  _125
REMARK   45  A    between atoms: _130  and  _133
REMARK   46  A    between atoms: _133  and  _134
REMARK   47  A    between atoms: _142  and  _143
REMARK   48  A    between atoms: _151  and  _153
REMARK   49  A    between atoms: _153  and  _154
REMARK   50  A    between atoms: _153  and  _156
REMARK   51  A    between atoms: _156  and  _157
REMARK   52  A    between atoms: _157  and  _158
REMARK   53  A    between atoms: _161  and  _163
REMARK   54  A    between atoms: _163  and  _164
REMARK   55  A    between atoms: _163  and  _166
REMARK   56  A    between atoms: _166  and  _167
REMARK   57  A    between atoms: _172  and  _174
REMARK   58  A    between atoms: _174  and  _175
REMARK   59  A    between atoms: _174  and  _177
REMARK   60  A    between atoms: _177  and  _178
REMARK   61  A    between atoms: _178  and  _179
REMARK   62  A    between atoms: _182  and  _184
REMARK   63  A    between atoms: _184  and  _185
REMARK   64  A    between atoms: _184  and  _187
REMARK   65  A    between atoms: _187  and  _188
REMARK   66  A    between atoms: _191  and  _193
REMARK   67  A    between atoms: _193  and  _194
REMARK   68  A    between atoms: _193  and  _196
REMARK   69  A    between atoms: _196  and  _197
REMARK   70  A    between atoms: _198  and  ZN_411
REMARK   71  A    between atoms: _202  and  _204
REMARK   72  A    between atoms: _204  and  _205
REMARK   73  A    between atoms: _204  and  _207
REMARK   74  A    between atoms: _207  and  _208
REMARK   75  A    between atoms: _211  and  _213
REMARK   76  A    between atoms: _213  and  _214
REMARK   77  A    between atoms: _213  and  _216
REMARK   78  A    between atoms: _219  and  _221
REMARK   79  A    between atoms: _221  and  _222
REMARK   80  A    between atoms: _221  and  _224
REMARK   81  A    between atoms: _224  and  _225
REMARK   82  A    between atoms: _230  and  _232
REMARK   83  A    between atoms: _232  and  _233
REMARK   84  A    between atoms: _232  and  _235
REMARK   85  A    between atoms: _235  and  _236
REMARK   86  A    between atoms: _246  and  _248
REMARK   87  A    between atoms: _248  and  _249
REMARK   88  A    between atoms: _248  and  _251
REMARK   89  A    between atoms: _251  and  _252
REMARK   90  A    between atoms: _258  and  _260
REMARK   91  A    between atoms: _260  and  _261
REMARK   92  A    between atoms: _260  and  _263
REMARK   93  A    between atoms: _266  and  _268
REMARK   94  A    between atoms: _268  and  _269
REMARK   95  A    between atoms: _268  and  _271
REMARK   96  A    between atoms: _271  and  _272
REMARK   97  A    between atoms: _275  and  _277
REMARK   98  A    between atoms: _277  and  _278
REMARK   99  A    between atoms: _277  and  _280
REMARK  100  A    between atoms: _283  and  _285
REMARK  101  A    between atoms: _285  and  _286
REMARK  102  A    between atoms: _285  and  _288
REMARK  103  A    between atoms: _288  and  _289
REMARK  104  A    between atoms: _292  and  _294
REMARK  105  A    between atoms: _294  and  _295
REMARK  106  A    between atoms: _294  and  _297
REMARK  107  A    between atoms: _297  and  _298
REMARK  108  A    between atoms: _300  and  _302
REMARK  109  A    between atoms: _302  and  _303
REMARK  110  A    between atoms: _302  and  _305
REMARK  111  A    between atoms: _305  and  _306
REMARK  112  A    between atoms: _309  and  _311
REMARK  113  A    between atoms: _311  and  _312
REMARK  114  A    between atoms: _311  and  _314
REMARK  115  A    between atoms: _314  and  _315
REMARK  116  A    between atoms: _318  and  _320
REMARK  117  A    between atoms: _320  and  _321
REMARK  118  A    between atoms: _320  and  _323
REMARK  119  A    between atoms: _323  and  _324
REMARK  120  A    between atoms: _328  and  _329
REMARK  121  A    between atoms: _335  and  _336
REMARK  122  A    between atoms: _341  and  _343
REMARK  123  A    between atoms: _343  and  _344
REMARK  124  A    between atoms: _343  and  _346
REMARK  125  A    between atoms: _346  and  _347
REMARK  126  A    between atoms: _350  and  _352
REMARK  127  A    between atoms: _352  and  _353
REMARK  128  A    between atoms: _352  and  _355
REMARK  129  A    between atoms: _355  and  _356
REMARK  130  A    between atoms: _359  and  _361
REMARK  131  A    between atoms: _361  and  _362
REMARK  132  A    between atoms: _361  and  _364
REMARK  133  A    between atoms: _367  and  _369
REMARK  134  A    between atoms: _369  and  _370
REMARK  135  A    between atoms: _369  and  _372
REMARK  136  A    between atoms: _372  and  _373
REMARK  137  A    between atoms: _383  and  _385
REMARK  138  A    between atoms: _385  and  _386
REMARK  139  A    between atoms: _385  and  _388
REMARK  140  A    between atoms: _388  and  _389
REMARK  141  A    between atoms: _394  and  _396
REMARK  142  A    between atoms: _396  and  _397
REMARK  143  A    between atoms: _396  and  _399
REMARK  144  A    between atoms: _399  and  _400
REMARK  145  A    between atoms: _400  and  _401
REMARK  146  A    between atoms: _401  and  _402
REMARK                            x       y       z     vdW  Elec       q    Type
REMARK                         _______ _______ _______ _____ _____    ______ ____
ROOT
ATOM      1  CA  GLU A   1     -12.688   6.174   6.421  0.00  0.00    +0.134 C 
ENDROOT
BRANCH   1   2
ATOM      2  N   GLU A   1     -12.685   4.839   5.839  0.00  0.00    -0.239 NA
ATOM      3  H   GLU A   1     -12.649   4.743   4.804  0.00  0.00    +0.142 HD
ENDBRANCH   1   2
BRANCH   1   4
ATOM      4  C   GLU A   1     -14.045   6.842   6.305  0.00  0.00    +0.224 C 
ATOM      5  O   GLU A   1     -14.780   6.620   5.333  0.00  0.00    -0.287 OA
ENDBRANCH   1   4
BRANCH   1   6
ATOM      6  CB  GLU A   1     -11.636   7.036   5.734  0.00  0.00    +0.037 C 
BRANCH   6   7
ATOM      7  CG  GLU A   1     -10.240   6.445   5.805  0.00  0.00    +0.116 C 
BRANCH   7   8
ATOM      8  CD  GLU A   1      -9.340   6.920   4.680  0.00  0.00    +0.365 C 
ATOM      9  OE2 GLU A   1      -8.100   6.861   4.851  0.00  0.00    -0.246 OA
ATOM     10  OE1 GLU A   1      -9.872   7.333   3.620  0.00  0.00    -0.246 OA
ENDBRANCH   7   8
ENDBRANCH   6   7
ENDBRANCH   1   6
TORSDOF 5
REMARK  Name = ../refined-set-2016/2h4n/2h4n_pocket.pdb
REMARK  146 active torsions:
REMARK  status: ('A' for Active; 'I' for Inactive)
REMARK    1  A    between atoms: _1  and  _3
REMARK    2  A    between atoms: _3  and  _4
REMARK    3  A    between atoms: _3  and  _6
REMARK    4  A    between atoms: _6  and  _7
REMARK    5  A    between atoms: _17  and  _19
REMARK    6  A    between atoms: _19  and  _20
REMARK    7  A    between atoms: _19  and  _22
REMARK    8  A    between atoms: _22  and  _23
REMARK    9  A    between atoms: _28  and  _29
REMARK   10  A    between atoms: _31  and  _33
REMARK   11  A    between atoms: _33  and  _34
REMARK   12  A    between atoms: _33  and  _36
REMARK   13  A    between atoms: _36  and  _37
REMARK   14  A    between atoms: _40  and  _41
REMARK   15  A    between atoms: _46  and  _48
REMARK   16  A    between atoms: _48  and  _49
REMARK   17  A    between atoms: _48  and  _51
REMARK   18  A    between atoms: _51  and  _52
REMARK   19  A    between atoms: _57  and  _59
REMARK   20  A    between atoms: _59  and  _60
REMARK   21  A    between atoms: _63  and  _65
REMARK   22  A    between atoms: _65  and  _66
REMARK   23  A    between atoms: _65  and  _68
REMARK   24  A    between atoms: _68  and  _69
REMARK   25  A    between atoms: _74  and  _76
REMARK   26  A    between atoms: _76  and  _77
REMARK   27  A    between atoms: _76  and  _79
REMARK   28  A    between atoms: _79  and  _80
REMARK   29  A    between atoms: _80  and  _81
REMARK   30  A    between atoms: _84  and  _86
REMARK   31  A    between atoms: _86  and  _87
REMARK   32  A    between atoms: _86  and  _89
REMARK   33  A    between atoms: _89  and  _90
REMARK   34  A    between atoms: _93  and  _95
REMARK   35  A    between atoms: _95  and  _96
REMARK   36  A    between atoms: _95  and  _98
REMARK   37  A    between atoms: _98  and  _99
REMARK   38  A    between atoms: _99  and  _100
REMARK   39  A    between atoms: _105  and  _107
REMARK   40  A    between atoms: _107  and  _108
REMARK   41  A    between atoms: _107  and  _110
REMARK   42  A    between atoms: _110  and  _111
REMARK   43  A    between atoms: _117  and  _119
REMARK   44  A    between atoms: _123  and  _125
REMARK   45  A    between atoms: _130  and  _133
REMARK   46  A    between atoms: _133  and  _134
REMARK   47  A    between atoms: _142  and  _143
REMARK   48  A    between atoms: _151  and  _153
REMARK   49  A    between atoms: _153  and  _154
REMARK   50  A    between atoms: _153  and  _156
REMARK   51  A    between atoms: _156  and  _157
REMARK   52  A    between atoms: _157  and  _158
REMARK   53  A    between atoms: _161  and  _163
REMARK   54  A    between atoms: _163  and  _164
REMARK   55  A    between atoms: _163  and  _166
REMARK   56  A    between atoms: _166  and  _167
REMARK   57  A    between atoms: _172  and  _174
REMARK   58  A    between atoms: _174  and  _175
REMARK   59  A    between atoms: _174  and  _177
REMARK   60  A    between atoms: _177  and  _178
REMARK   61  A    between atoms: _178  and  _179
REMARK   62  A    between atoms: _182  and  _184
REMARK   63  A    between atoms: _184  and  _185
REMARK   64  A    between atoms: _184  and  _187
REMARK   65  A    between atoms: _187  and  _188
REMARK   66  A    between atoms: _191  and  _193
REMARK   67  A    between atoms: _193  and  _194
REMARK   68  A    between atoms: _193  and  _196
REMARK   69  A    between atoms: _196  and  _197
REMARK   70  A    between atoms: _198  and  ZN_411
REMARK   71  A    between atoms: _202  and  _204
REMARK   72  A    between atoms: _204  and  _205
REMARK   73  A    between atoms: _204  and  _207
REMARK   74  A    between atoms: _207  and  _208
REMARK   75  A    between atoms: _211  and  _213
REMARK   76  A    between atoms: _213  and  _214
REMARK   77  A    between atoms: _213  and  _216
REMARK   78  A    between atoms: _219  and  _221
REMARK   79  A    between atoms: _221  and  _222
REMARK   80  A    between atoms: _221  and  _224
REMARK   81  A    between atoms: _224  and  _225
REMARK   82  A    between atoms: _230  and  _232
REMARK   83  A    between atoms: _232  and  _233
REMARK   84  A    between atoms: _232  and  _235
REMARK   85  A    between atoms: _235  and  _236
REMARK   86  A    between atoms: _246  and  _248
REMARK   87  A    between atoms: _248  and  _249
REMARK   88  A    between atoms: _248  and  _251
REMARK   89  A    between atoms: _251  and  _252
REMARK   90  A    between atoms: _258  and  _260
REMARK   91  A    between atoms: _260  and  _261
REMARK   92  A    between atoms: _260  and  _263
REMARK   93  A    between atoms: _266  and  _268
REMARK   94  A    between atoms: _268  and  _269
REMARK   95  A    between atoms: _268  and  _271
REMARK   96  A    between atoms: _271  and  _272
REMARK   97  A    between atoms: _275  and  _277
REMARK   98  A    between atoms: _277  and  _278
REMARK   99  A    between atoms: _277  and  _280
REMARK  100  A    between atoms: _283  and  _285
REMARK  101  A    between atoms: _285  and  _286
REMARK  102  A    between atoms: _285  and  _288
REMARK  103  A    between atoms: _288  and  _289
REMARK  104  A    between atoms: _292  and  _294
REMARK  105  A    between atoms: _294  and  _295
REMARK  106  A    between atoms: _294  and  _297
REMARK  107  A    between atoms: _297  and  _298
REMARK  108  A    between atoms: _300  and  _302
REMARK  109  A    between atoms: _302  and  _303
REMARK  110  A    between atoms: _302  and  _305
REMARK  111  A    between atoms: _305  and  _306
REMARK  112  A    between atoms: _309  and  _311
REMARK  113  A    between atoms: _311  and  _312
REMARK  114  A    between atoms: _311  and  _314
REMARK  115  A    between atoms: _314  and  _315
REMARK  116  A    between atoms: _318  and  _320
REMARK  117  A    between atoms: _320  and  _321
REMARK  118  A    between atoms: _320  and  _323
REMARK  119  A    between atoms: _323  and  _324
REMARK  120  A    between atoms: _328  and  _329
REMARK  121  A    between atoms: _335  and  _336
REMARK  122  A    between atoms: _341  and  _343
REMARK  123  A    between atoms: _343  and  _344
REMARK  124  A    between atoms: _343  and  _346
REMARK  125  A    between atoms: _346  and  _347
REMARK  126  A    between atoms: _350  and  _352
REMARK  127  A    between atoms: _352  and  _353
REMARK  128  A    between atoms: _352  and  _355
REMARK  129  A    between atoms: _355  and  _356
REMARK  130  A    between atoms: _359  and  _361
REMARK  131  A    between atoms: _361  and  _362
REMARK  132  A    between atoms: _361  and  _364
REMARK  133  A    between atoms: _367  and  _369
REMARK  134  A    between atoms: _369  and  _370
REMARK  135  A    between atoms: _369  and  _372
REMARK  136  A    between atoms: _372  and  _373
REMARK  137  A    between atoms: _383  and  _385
REMARK  138  A    between atoms: _385  and  _386
REMARK  139  A    between atoms: _385  and  _388
REMARK  140  A    between atoms: _388  and  _389
REMARK  141  A    between atoms: _394  and  _396
REMARK  142  A    between atoms: _396  and  _397
REMARK  143  A    between atoms: _396  and  _399
REMARK  144  A    between atoms: _399  and  _400
REMARK  145  A    between atoms: _400  and  _401
REMARK  146  A    between atoms: _401  and  _402
REMARK                            x       y       z     vdW  Elec       q    Type
REMARK                         _______ _______ _______ _____ _____    ______ ____
ROOT
ATOM      1  N   UNK A   6      -8.361  -2.375  16.363  0.00  0.00    +0.000 N 
ATOM      2  C   UNK A   6      -7.971  -3.242  17.276  0.00  0.00    +0.000 A 
ATOM      3  N   UNK A   6      -8.972  -3.561  18.111  0.00  0.00    +0.000 NA
ATOM      4  C   UNK A   6     -10.077  -2.859  17.704  0.00  0.00    +0.000 A 
ATOM      5  C   UNK A   6      -9.690  -2.126  16.630  0.00  0.00    +0.000 A 
ENDROOT
BRANCH   1  19
ATOM      6  C   UNK A   4      -9.995  -1.276  10.724  0.00  0.00    +0.000 C 
ATOM      7  C   UNK A   4     -10.131  -2.650  11.354  0.00  0.00    +0.000 C 
ATOM      8  O   UNK A   4     -10.823  -2.815  12.361  0.00  0.00    +0.000 OA
ATOM      9  N   VAL A   5      -9.497  -3.637  10.738  0.00  0.00    +0.000 N 
ATOM     10  CA  VAL A   5      -9.551  -5.008  11.217  0.00  0.00    +0.000 C 
ATOM     11  C   VAL A   5      -8.152  -5.546  11.420  0.00  0.00    +0.000 C 
ATOM     12  N   UNK A   6      -8.087  -6.620  12.196  0.00  0.00    +0.000 N 
ATOM     13  H   UNK A   6      -8.972  -6.964  12.619  0.00  0.00    +0.000 HD
ATOM     14  C   UNK A   6      -6.863  -7.352  12.498  0.00  0.00    +0.000 C 
ATOM     15  C   UNK A   6      -6.409  -7.087  13.934  0.00  0.00    +0.000 C 
ATOM     16  C   UNK A   6      -6.053  -5.660  14.191  0.00  0.00    +0.000 A 
ATOM     17  C   UNK A   6      -6.841  -4.612  14.539  0.00  0.00    +0.000 A 
ATOM     18  N   UNK A   6      -6.066  -3.458  14.610  0.00  0.00    +0.000 N 
ATOM     19 ZN   UNK A   6      -7.066  -1.737  14.967  0.00  0.00    +0.000 Zn
ATOM     20  O   UNK A   4      -7.836  -1.273  13.203  0.00  0.00    +0.000 OA
ATOM     21  C   UNK A   4      -8.325  -0.413  12.457  0.00  0.00    +0.000 C 
ATOM     22  C   UNK A   6      -4.838  -3.833  14.306  0.00  0.00    +0.000 A 
ATOM     23  N   UNK A   6      -4.784  -5.145  14.049  0.00  0.00    +0.000 NA
ATOM     24  O   VAL A   5      -7.181  -5.029  10.863  0.00  0.00    +0.000 OA
ATOM     25  H   VAL A   5      -8.943  -3.424   9.884  0.00  0.00    +0.000 HD
ATOM     26  C   UNK A   4      -8.590  -0.701  10.980  0.00  0.00    +0.000 C 
BRANCH   6  28
ATOM     27  C   UNK A   3     -11.632   0.524  10.576  0.00  0.00    +0.000 C 
ATOM     28  N   UNK A   4     -11.026  -0.414  11.290  0.00  0.00    +0.000 N 
ATOM     29  H   UNK A   4     -11.295  -0.539  12.287  0.00  0.00    +0.000 HD
ATOM     30  O   UNK A   3     -11.280   0.828   9.425  0.00  0.00    +0.000 OA
BRANCH  27  31
ATOM     31  C   UNK A   3     -12.676   1.357  11.311  0.00  0.00    +0.000 C 
BRANCH  31  34
ATOM     32  C   LEU A   2     -12.657   3.772  11.439  0.00  0.00    +0.000 C 
ATOM     33  O   LEU A   2     -12.893   3.781  12.648  0.00  0.00    +0.000 OA
ATOM     34  N   UNK A   3     -12.632   2.670  10.701  0.00  0.00    +0.000 N 
ATOM     35  H   UNK A   3     -12.580   2.750   9.665  0.00  0.00    +0.000 HD
BRANCH  32  36
ATOM     36  CA  LEU A   2     -12.436   5.057  10.677  0.00  0.00    +0.000 C 
BRANCH  36  38
ATOM     37  C   GLU A   1     -12.880   7.425  10.903  0.00  0.00    +0.000 C 
ATOM     38  N   LEU A   2     -12.755   6.231  11.474  0.00  0.00    +0.000 N 
ATOM     39  H   LEU A   2     -12.887   6.135  12.501  0.00  0.00    +0.000 HD
ATOM     40  O   GLU A   1     -12.801   7.581   9.680  0.00  0.00    +0.000 OA
BRANCH  37  41
ATOM     41  CA  GLU A   1     -13.217   8.606  11.823  0.00  0.00    +0.000 C 
BRANCH  41  42
ATOM     42  CB  GLU A   1     -11.924   9.289  12.370  0.00  0.00    +0.000 C 
ATOM     43  CG2 GLU A   1     -11.219   8.404  13.396  0.00  0.00    +0.000 C 
BRANCH  42  44
ATOM     44  CG1 GLU A   1     -10.989   9.659  11.221  0.00  0.00    +0.000 C 
ATOM     45  CD1 GLU A   1      -9.967  10.703  11.601  0.00  0.00    +0.000 C 
ENDBRANCH  42  44
ENDBRANCH  41  42
BRANCH  41  46
ATOM     46  N   GLU A   1     -14.117   8.217  12.905  0.00  0.00    +0.000 NA
ATOM     47  H   GLU A   1     -13.792   7.536  13.620  0.00  0.00    +0.000 HD
ENDBRANCH  41  46
ENDBRANCH  37  41
ENDBRANCH  36  38
BRANCH  36  48
ATOM     48  CB  LEU A   2     -10.951   5.066  10.267  0.00  0.00    +0.000 C 
BRANCH  48  49
ATOM     49  CG  LEU A   2      -9.978   4.764  11.426  0.00  0.00    +0.000 C 
BRANCH  49  50
ATOM     50  CD  LEU A   2      -8.632   4.206  10.974  0.00  0.00    +0.000 C 
ATOM     51  OE1 LEU A   2      -8.306   3.054  11.255  0.00  0.00    +0.000 OA
ATOM     52  NE2 LEU A   2      -7.840   5.024  10.294  0.00  0.00    +0.000 N 
ATOM     53 HE21 LEU A   2      -8.154   5.991  10.077  0.00  0.00    +0.000 HD
ATOM     54 HE22 LEU A   2      -6.904   4.698   9.978  0.00  0.00    +0.000 HD
ENDBRANCH  49  50
ENDBRANCH  48  49
ENDBRANCH  36  48
ENDBRANCH  32  36
ENDBRANCH  31  34
BRANCH  31  55
ATOM     55  C   UNK A   3     -14.083   0.725  11.397  0.00  0.00    +0.000 C 
BRANCH  55  56
ATOM     56  C   UNK A   3     -14.683   0.269  10.088  0.00  0.00    +0.000 A 
ATOM     57  C   UNK A   3     -15.858   0.853   9.623  0.00  0.00    +0.000 A 
ATOM     58  C   UNK A   3     -16.522   0.344   8.502  0.00  0.00    +0.000 A 
ATOM     59  C   UNK A   3     -16.003  -0.762   7.829  0.00  0.00    +0.000 A 
ATOM     60  C   UNK A   3     -14.824  -1.349   8.277  0.00  0.00    +0.000 A 
ATOM     61  C   UNK A   3     -14.170  -0.831   9.401  0.00  0.00    +0.000 A 
ENDBRANCH  55  56
ENDBRANCH  31  55
ENDBRANCH  27  31
ENDBRANCH   6  28
BRANCH  21  62
ATOM     62  N   UNK A   4      -8.632   0.805  12.882  0.00  0.00    +0.000 NA
ATOM     63  H   UNK A   4      -8.464   1.067  13.874  0.00  0.00    +0.000 HD
ATOM     64  H   UNK A   4      -9.041   1.498  12.223  0.00  0.00    +0.000 HD
ENDBRANCH  21  62
BRANCH  14  65
ATOM     65  C   UNK A   6      -7.332  -8.796  12.376  0.00  0.00    +0.000 C 
ATOM     66  O   UNK A   6      -8.435  -9.120  12.834  0.00  0.00    +0.000 OA
ENDBRANCH  14  65
BRANCH  10  67
ATOM     67  CB  VAL A   5     -10.226  -5.918  10.188  0.00  0.00    +0.000 C 
BRANCH  67  68
ATOM     68  CG  VAL A   5     -11.717  -5.742  10.068  0.00  0.00    +0.000 A 
ATOM     69  CD2 VAL A   5     -12.583  -6.548  10.798  0.00  0.00    +0.000 A 
ATOM     70  CE2 VAL A   5     -13.961  -6.487  10.591  0.00  0.00    +0.000 A 
ATOM     71  CZ  VAL A   5     -14.491  -5.605   9.641  0.00  0.00    +0.000 A 
ATOM     72  CE1 VAL A   5     -13.638  -4.792   8.918  0.00  0.00    +0.000 A 
ATOM     73  CD1 VAL A   5     -12.253  -4.862   9.136  0.00  0.00    +0.000 A 
ENDBRANCH  67  68
ENDBRANCH  10  67
ENDBRANCH   1  19
BRANCH   5  74
ATOM     74  C   UNK A   6     -10.468  -1.104  15.859  0.00  0.00    +0.000 C 
BRANCH  74  75
ATOM     75  C   UNK A   6     -11.964  -1.419  15.732  0.00  0.00    +0.000 C 
BRANCH  75  76
ATOM     76  N   UNK A   6     -12.163  -2.612  14.919  0.00  0.00    +0.000 N 
ATOM     77  C   LEU A   2     -12.741  -3.703  15.402  0.00  0.00    +0.000 C 
ATOM     78  O   LEU A   2     -13.113  -3.804  16.570  0.00  0.00    +0.000 OA
ATOM     79  H   UNK A   6     -11.842  -2.607  13.930  0.00  0.00    +0.000 HD
BRANCH  77  80
ATOM     80  CA  LEU A   2     -12.907  -4.870  14.428  0.00  0.00    +0.000 C 
BRANCH  80  81
ATOM     81  N   LEU A   2     -12.503  -6.099  15.094  0.00  0.00    +0.000 N 
ATOM     82  H   LEU A   2     -13.172  -6.533  15.761  0.00  0.00    +0.000 HD
ATOM     83  C   GLU A   1     -11.336  -6.701  14.905  0.00  0.00    +0.000 C 
ATOM     84  O   GLU A   1     -10.500  -6.338  14.076  0.00  0.00    +0.000 OA
BRANCH  83  85
ATOM     85  CA  GLU A   1     -11.133  -7.969  15.722  0.00  0.00    +0.000 C 
BRANCH  85  86
ATOM     86  N   GLU A   1     -10.624  -9.015  14.853  0.00  0.00    +0.000 NA
ATOM     87  H   GLU A   1      -9.967  -8.764  14.087  0.00  0.00    +0.000 HD
ENDBRANCH  85  86
BRANCH  85  88
ATOM     88  CB  GLU A   1     -10.174  -7.727  16.893  0.00  0.00    +0.000 C 
BRANCH  88  89
ATOM     89  CG  GLU A   1     -10.676  -6.752  17.954  0.00  0.00    +0.000 C 
BRANCH  89  90
ATOM     90  CD  GLU A   1      -9.741  -6.685  19.153  0.00  0.00    +0.000 C 
ATOM     91  OE2 GLU A   1      -9.588  -5.595  19.731  0.00  0.00    +0.000 OA
ATOM     92  OE1 GLU A   1      -9.155  -7.723  19.518  0.00  0.00    +0.000 OA
ENDBRANCH  89  90
ENDBRANCH  88  89
ENDBRANCH  85  88
ENDBRANCH  83  85
ENDBRANCH  80  81
BRANCH  80  93
ATOM     93  CB  LEU A   2     -14.381  -4.984  14.004  0.00  0.00    +0.000 C 
BRANCH  93  94
ATOM     94  CG  LEU A   2     -15.155  -3.728  13.596  0.00  0.00    +0.000 C 
ATOM     95  CD2 LEU A   2     -16.585  -4.124  13.306  0.00  0.00    +0.000 C 
ATOM     96  CD1 LEU A   2     -14.518  -3.061  12.380  0.00  0.00    +0.000 C 
ENDBRANCH  93  94
ENDBRANCH  80  93
ENDBRANCH  77  80
ENDBRANCH  75  76
BRANCH  75  97
ATOM     97  C   UNK A   6     -12.648  -0.227  15.071  0.00  0.00    +0.000 C 
ATOM     98  N   UNK A   4     -13.583   0.385  15.794  0.00  0.00    +0.000 N 
ATOM     99  H   UNK A   4     -13.822  -0.004  16.728  0.00  0.00    +0.000 HD
ATOM    100  O   UNK A   6     -12.369   0.085  13.899  0.00  0.00    +0.000 OA
BRANCH  98 101
ATOM    101  C   UNK A   4     -14.289   1.579  15.334  0.00  0.00    +0.000 C 
BRANCH 101 102
ATOM    102  C   UNK A   4     -13.657   2.704  16.156  0.00  0.00    +0.000 C 
ATOM    103  O   UNK A   4     -13.840   2.775  17.383  0.00  0.00    +0.000 OA
ATOM    104  N   VAL A   5     -12.850   3.518  15.483  0.00  0.00    +0.000 N 
ATOM    105  H   VAL A   5     -12.756   3.376  14.457  0.00  0.00    +0.000 HD
BRANCH 104 106
ATOM    106  CA  VAL A   5     -12.087   4.601  16.101  0.00  0.00    +0.000 C 
BRANCH 106 107
ATOM    107  C   VAL A   5     -12.823   5.940  16.125  0.00  0.00    +0.000 C 
ATOM    108  N   UNK A   6     -12.883   6.557  17.306  0.00  0.00    +0.000 N 
ATOM    109  H   UNK A   6     -12.431   6.113  18.131  0.00  0.00    +0.000 HD
ATOM    110  O   VAL A   5     -13.332   6.401  15.087  0.00  0.00    +0.000 OA
BRANCH 108 111
ATOM    111  C   UNK A   6     -13.565   7.840  17.476  0.00  0.00    +0.000 C 
BRANCH 111 112
ATOM    112  C   UNK A   6     -12.654   8.805  18.216  0.00  0.00    +0.000 C 
ATOM    113  O   UNK A   6     -11.894   8.383  19.087  0.00  0.00    +0.000 OA
ATOM    114  N   TRP A   7     -12.740  10.092  17.889  0.00  0.00    +0.000 N 
ATOM    115  H   TRP A   7     -13.385  10.388  17.128  0.00  0.00    +0.000 HD
BRANCH 114 116
ATOM    116  CA  TRP A   7     -11.937  11.096  18.588  0.00  0.00    +0.000 C 
BRANCH 116 117
ATOM    117  C   TRP A   7     -12.825  12.128  19.285  0.00  0.00    +0.000 C 
ATOM    118  O   TRP A   7     -13.899  12.493  18.787  0.00  0.00    +0.000 OA
ENDBRANCH 116 117
BRANCH 116 119
ATOM    119  CB  TRP A   7     -10.916  11.771  17.667  0.00  0.00    +0.000 C 
BRANCH 119 120
ATOM    120  CG  TRP A   7     -11.496  12.417  16.460  0.00  0.00    +0.000 A 
ATOM    121  CD2 TRP A   7     -11.867  13.792  16.320  0.00  0.00    +0.000 A 
ATOM    122  CE3 TRP A   7     -11.844  14.899  17.184  0.00  0.00    +0.000 A 
ATOM    123  CZ3 TRP A   7     -12.293  16.133  16.703  0.00  0.00    +0.000 A 
ATOM    124  CH2 TRP A   7     -12.759  16.271  15.378  0.00  0.00    +0.000 A 
ATOM    125  CZ2 TRP A   7     -12.792  15.202  14.511  0.00  0.00    +0.000 A 
ATOM    126  CE2 TRP A   7     -12.342  13.964  14.993  0.00  0.00    +0.000 A 
ATOM    127  NE1 TRP A   7     -12.265  12.746  14.368  0.00  0.00    +0.000 N 
ATOM    128  HE1 TRP A   7     -12.547  12.552  13.386  0.00  0.00    +0.000 HD
ATOM    129  CD1 TRP A   7     -11.755  11.821  15.250  0.00  0.00    +0.000 A 
ENDBRANCH 119 120
ENDBRANCH 116 119
ENDBRANCH 114 116
ENDBRANCH 111 112
BRANCH 111 130
ATOM    130  C   UNK A   6     -14.833   7.689  18.327  0.00  0.00    +0.000 C 
BRANCH 130 131
ATOM    131  C   UNK A   6     -15.763   6.604  17.876  0.00  0.00    +0.000 A 
ATOM    132  N   UNK A   6     -15.476   5.264  18.029  0.00  0.00    +0.000 NA
ATOM    133  C   UNK A   6     -16.499   4.544  17.599  0.00  0.00    +0.000 A 
ATOM    134  N   UNK A   6     -17.438   5.369  17.171  0.00  0.00    +0.000 NA
ATOM    135  C   UNK A   6     -17.002   6.663  17.329  0.00  0.00    +0.000 A 
ENDBRANCH 130 131
ENDBRANCH 111 130
ENDBRANCH 108 111
ENDBRANCH 106 107
BRANCH 106 136
ATOM    136  CB  VAL A   5     -10.719   4.764  15.370  0.00  0.00    +0.000 C 
ATOM    137  CG2 VAL A   5      -9.831   5.797  16.075  0.00  0.00    +0.000 C 
ATOM    138  CG1 VAL A   5     -10.006   3.416  15.269  0.00  0.00    +0.000 C 
ENDBRANCH 106 136
ENDBRANCH 104 106
ENDBRANCH 101 102
BRANCH 101 139
ATOM    139  C   UNK A   4     -15.787   1.447  15.595  0.00  0.00    +0.000 C 
BRANCH 139 140
ATOM    140  C   UNK A   4     -16.444   0.409  14.676  0.00  0.00    +0.000 C 
ATOM    141  C   UNK A   4     -17.510  -0.385  15.399  0.00  0.00    +0.000 C 
ATOM    142  C   UNK A   4     -17.031   1.121  13.475  0.00  0.00    +0.000 C 
ENDBRANCH 139 140
ENDBRANCH 101 139
ENDBRANCH  98 101
ENDBRANCH  75  97
ENDBRANCH  74  75
ENDBRANCH   5  74
TORSDOF 47
REMARK  Name = ../refined-set-2016/2h4n/2h4n_pocket.pdb
REMARK  146 active torsions:
REMARK  status: ('A' for Active; 'I' for Inactive)
REMARK    1  A    between atoms: _1  and  _3
REMARK    2  A    between atoms: _3  and  _4
REMARK    3  A    between atoms: _3  and  _6
REMARK    4  A    between atoms: _6  and  _7
REMARK    5  A    between atoms: _17  and  _19
REMARK    6  A    between atoms: _19  and  _20
REMARK    7  A    between atoms: _19  and  _22
REMARK    8  A    between atoms: _22  and  _23
REMARK    9  A    between atoms: _28  and  _29
REMARK   10  A    between atoms: _31  and  _33
REMARK   11  A    between atoms: _33  and  _34
REMARK   12  A    between atoms: _33  and  _36
REMARK   13  A    between atoms: _36  and  _37
REMARK   14  A    between atoms: _40  and  _41
REMARK   15  A    between atoms: _46  and  _48
REMARK   16  A    between atoms: _48  and  _49
REMARK   17  A    between atoms: _48  and  _51
REMARK   18  A    between atoms: _51  and  _52
REMARK   19  A    between atoms: _57  and  _59
REMARK   20  A    between atoms: _59  and  _60
REMARK   21  A    between atoms: _63  and  _65
REMARK   22  A    between atoms: _65  and  _66
REMARK   23  A    between atoms: _65  and  _68
REMARK   24  A    between atoms: _68  and  _69
REMARK   25  A    between atoms: _74  and  _76
REMARK   26  A    between atoms: _76  and  _77
REMARK   27  A    between atoms: _76  and  _79
REMARK   28  A    between atoms: _79  and  _80
REMARK   29  A    between atoms: _80  and  _81
REMARK   30  A    between atoms: _84  and  _86
REMARK   31  A    between atoms: _86  and  _87
REMARK   32  A    between atoms: _86  and  _89
REMARK   33  A    between atoms: _89  and  _90
REMARK   34  A    between atoms: _93  and  _95
REMARK   35  A    between atoms: _95  and  _96
REMARK   36  A    between atoms: _95  and  _98
REMARK   37  A    between atoms: _98  and  _99
REMARK   38  A    between atoms: _99  and  _100
REMARK   39  A    between atoms: _105  and  _107
REMARK   40  A    between atoms: _107  and  _108
REMARK   41  A    between atoms: _107  and  _110
REMARK   42  A    between atoms: _110  and  _111
REMARK   43  A    between atoms: _117  and  _119
REMARK   44  A    between atoms: _123  and  _125
REMARK   45  A    between atoms: _130  and  _133
REMARK   46  A    between atoms: _133  and  _134
REMARK   47  A    between atoms: _142  and  _143
REMARK   48  A    between atoms: _151  and  _153
REMARK   49  A    between atoms: _153  and  _154
REMARK   50  A    between atoms: _153  and  _156
REMARK   51  A    between atoms: _156  and  _157
REMARK   52  A    between atoms: _157  and  _158
REMARK   53  A    between atoms: _161  and  _163
REMARK   54  A    between atoms: _163  and  _164
REMARK   55  A    between atoms: _163  and  _166
REMARK   56  A    between atoms: _166  and  _167
REMARK   57  A    between atoms: _172  and  _174
REMARK   58  A    between atoms: _174  and  _175
REMARK   59  A    between atoms: _174  and  _177
REMARK   60  A    between atoms: _177  and  _178
REMARK   61  A    between atoms: _178  and  _179
REMARK   62  A    between atoms: _182  and  _184
REMARK   63  A    between atoms: _184  and  _185
REMARK   64  A    between atoms: _184  and  _187
REMARK   65  A    between atoms: _187  and  _188
REMARK   66  A    between atoms: _191  and  _193
REMARK   67  A    between atoms: _193  and  _194
REMARK   68  A    between atoms: _193  and  _196
REMARK   69  A    between atoms: _196  and  _197
REMARK   70  A    between atoms: _198  and  ZN_411
REMARK   71  A    between atoms: _202  and  _204
REMARK   72  A    between atoms: _204  and  _205
REMARK   73  A    between atoms: _204  and  _207
REMARK   74  A    between atoms: _207  and  _208
REMARK   75  A    between atoms: _211  and  _213
REMARK   76  A    between atoms: _213  and  _214
REMARK   77  A    between atoms: _213  and  _216
REMARK   78  A    between atoms: _219  and  _221
REMARK   79  A    between atoms: _221  and  _222
REMARK   80  A    between atoms: _221  and  _224
REMARK   81  A    between atoms: _224  and  _225
REMARK   82  A    between atoms: _230  and  _232
REMARK   83  A    between atoms: _232  and  _233
REMARK   84  A    between atoms: _232  and  _235
REMARK   85  A    between atoms: _235  and  _236
REMARK   86  A    between atoms: _246  and  _248
REMARK   87  A    between atoms: _248  and  _249
REMARK   88  A    between atoms: _248  and  _251
REMARK   89  A    between atoms: _251  and  _252
REMARK   90  A    between atoms: _258  and  _260
REMARK   91  A    between atoms: _260  and  _261
REMARK   92  A    between atoms: _260  and  _263
REMARK   93  A    between atoms: _266  and  _268
REMARK   94  A    between atoms: _268  and  _269
REMARK   95  A    between atoms: _268  and  _271
REMARK   96  A    between atoms: _271  and  _272
REMARK   97  A    between atoms: _275  and  _277
REMARK   98  A    between atoms: _277  and  _278
REMARK   99  A    between atoms: _277  and  _280
REMARK  100  A    between atoms: _283  and  _285
REMARK  101  A    between atoms: _285  and  _286
REMARK  102  A    between atoms: _285  and  _288
REMARK  103  A    between atoms: _288  and  _289
REMARK  104  A    between atoms: _292  and  _294
REMARK  105  A    between atoms: _294  and  _295
REMARK  106  A    between atoms: _294  and  _297
REMARK  107  A    between atoms: _297  and  _298
REMARK  108  A    between atoms: _300  and  _302
REMARK  109  A    between atoms: _302  and  _303
REMARK  110  A    between atoms: _302  and  _305
REMARK  111  A    between atoms: _305  and  _306
REMARK  112  A    between atoms: _309  and  _311
REMARK  113  A    between atoms: _311  and  _312
REMARK  114  A    between atoms: _311  and  _314
REMARK  115  A    between atoms: _314  and  _315
REMARK  116  A    between atoms: _318  and  _320
REMARK  117  A    between atoms: _320  and  _321
REMARK  118  A    between atoms: _320  and  _323
REMARK  119  A    between atoms: _323  and  _324
REMARK  120  A    between atoms: _328  and  _329
REMARK  121  A    between atoms: _335  and  _336
REMARK  122  A    between atoms: _341  and  _343
REMARK  123  A    between atoms: _343  and  _344
REMARK  124  A    between atoms: _343  and  _346
REMARK  125  A    between atoms: _346  and  _347
REMARK  126  A    between atoms: _350  and  _352
REMARK  127  A    between atoms: _352  and  _353
REMARK  128  A    between atoms: _352  and  _355
REMARK  129  A    between atoms: _355  and  _356
REMARK  130  A    between atoms: _359  and  _361
REMARK  131  A    between atoms: _361  and  _362
REMARK  132  A    between atoms: _361  and  _364
REMARK  133  A    between atoms: _367  and  _369
REMARK  134  A    between atoms: _369  and  _370
REMARK  135  A    between atoms: _369  and  _372
REMARK  136  A    between atoms: _372  and  _373
REMARK  137  A    between atoms: _383  and  _385
REMARK  138  A    between atoms: _385  and  _386
REMARK  139  A    between atoms: _385  and  _388
REMARK  140  A    between atoms: _388  and  _389
REMARK  141  A    between atoms: _394  and  _396
REMARK  142  A    between atoms: _396  and  _397
REMARK  143  A    between atoms: _396  and  _399
REMARK  144  A    between atoms: _399  and  _400
REMARK  145  A    between atoms: _400  and  _401
REMARK  146  A    between atoms: _401  and  _402
REMARK                            x       y       z     vdW  Elec       q    Type
REMARK                         _______ _______ _______ _____ _____    ______ ____
ROOT
ATOM      1  C   GLU A   1      -5.965  -8.620  21.089  0.00  0.00    +0.238 C 
ATOM      2  O   GLU A   1      -5.131  -9.148  21.826  0.00  0.00    -0.274 OA
ATOM      3  N   HIS A   2      -7.168  -8.233  21.520  0.00  0.00    -0.298 N 
ATOM      4  H   HIS A   2      -7.815  -7.749  20.865  0.00  0.00    +0.150 HD
ENDROOT
BRANCH   1   5
ATOM      5  CA  GLU A   1      -5.649  -8.378  19.607  0.00  0.00    +0.145 C 
BRANCH   5   6
ATOM      6  N   GLU A   1      -6.699  -9.011  18.834  0.00  0.00    -0.238 NA
ATOM      7  H   GLU A   1      -7.559  -8.468  18.614  0.00  0.00    +0.142 HD
ENDBRANCH   5   6
BRANCH   5   8
ATOM      8  CB  GLU A   1      -5.582  -6.894  19.263  0.00  0.00    +0.038 C 
BRANCH   8   9
ATOM      9  CG  GLU A   1      -5.269  -6.682  17.807  0.00  0.00    +0.116 C 
BRANCH   9  10
ATOM     10  CD  GLU A   1      -4.546  -5.392  17.552  0.00  0.00    +0.365 C 
ATOM     11  OE2 GLU A   1      -5.171  -4.323  17.682  0.00  0.00    -0.246 OA
ATOM     12  OE1 GLU A   1      -3.354  -5.449  17.206  0.00  0.00    -0.246 OA
ENDBRANCH   9  10
ENDBRANCH   8   9
ENDBRANCH   5   8
ENDBRANCH   1   5
BRANCH   3  13
ATOM     13  CA  HIS A   2      -7.590  -8.478  22.894  0.00  0.00    +0.143 C 
BRANCH  13  14
ATOM     14  C   HIS A   2      -7.985  -9.936  22.944  0.00  0.00    +0.227 C 
ATOM     15  O   HIS A   2      -8.300 -10.538  21.903  0.00  0.00    -0.286 OA
ENDBRANCH  13  14
BRANCH  13  16
ATOM     16  CB  HIS A   2      -8.805  -7.634  23.279  0.00  0.00    +0.075 C 
BRANCH  16  17
ATOM     17  CG  HIS A   2      -8.510  -6.175  23.406  0.00  0.00    +0.082 A 
ATOM     18  CD2 HIS A   2      -8.202  -5.436  24.501  0.00  0.00    +0.115 A 
ATOM     19  NE2 HIS A   2      -7.954  -4.129  24.114  0.00  0.00    -0.221 NA
ATOM     20  CE1 HIS A   2      -8.118  -4.097  22.807  0.00  0.00    +0.199 A 
ATOM     21  ND1 HIS A   2      -8.456  -5.305  22.339  0.00  0.00    -0.227 NA
ENDBRANCH  16  17
ENDBRANCH  13  16
ENDBRANCH   3  13
TORSDOF 9
REMARK  Name = ../refined-set-2016/2h4n/2h4n_pocket.pdb
REMARK  146 active torsions:
REMARK  status: ('A' for Active; 'I' for Inactive)
REMARK    1  A    between atoms: _1  and  _3
REMARK    2  A    between atoms: _3  and  _4
REMARK    3  A    between atoms: _3  and  _6
REMARK    4  A    between atoms: _6  and  _7
REMARK    5  A    between atoms: _17  and  _19
REMARK    6  A    between atoms: _19  and  _20
REMARK    7  A    between atoms: _19  and  _22
REMARK    8  A    between atoms: _22  and  _23
REMARK    9  A    between atoms: _28  and  _29
REMARK   10  A    between atoms: _31  and  _33
REMARK   11  A    between atoms: _33  and  _34
REMARK   12  A    between atoms: _33  and  _36
REMARK   13  A    between atoms: _36  and  _37
REMARK   14  A    between atoms: _40  and  _41
REMARK   15  A    between atoms: _46  and  _48
REMARK   16  A    between atoms: _48  and  _49
REMARK   17  A    between atoms: _48  and  _51
REMARK   18  A    between atoms: _51  and  _52
REMARK   19  A    between atoms: _57  and  _59
REMARK   20  A    between atoms: _59  and  _60
REMARK   21  A    between atoms: _63  and  _65
REMARK   22  A    between atoms: _65  and  _66
REMARK   23  A    between atoms: _65  and  _68
REMARK   24  A    between atoms: _68  and  _69
REMARK   25  A    between atoms: _74  and  _76
REMARK   26  A    between atoms: _76  and  _77
REMARK   27  A    between atoms: _76  and  _79
REMARK   28  A    between atoms: _79  and  _80
REMARK   29  A    between atoms: _80  and  _81
REMARK   30  A    between atoms: _84  and  _86
REMARK   31  A    between atoms: _86  and  _87
REMARK   32  A    between atoms: _86  and  _89
REMARK   33  A    between atoms: _89  and  _90
REMARK   34  A    between atoms: _93  and  _95
REMARK   35  A    between atoms: _95  and  _96
REMARK   36  A    between atoms: _95  and  _98
REMARK   37  A    between atoms: _98  and  _99
REMARK   38  A    between atoms: _99  and  _100
REMARK   39  A    between atoms: _105  and  _107
REMARK   40  A    between atoms: _107  and  _108
REMARK   41  A    between atoms: _107  and  _110
REMARK   42  A    between atoms: _110  and  _111
REMARK   43  A    between atoms: _117  and  _119
REMARK   44  A    between atoms: _123  and  _125
REMARK   45  A    between atoms: _130  and  _133
REMARK   46  A    between atoms: _133  and  _134
REMARK   47  A    between atoms: _142  and  _143
REMARK   48  A    between atoms: _151  and  _153
REMARK   49  A    between atoms: _153  and  _154
REMARK   50  A    between atoms: _153  and  _156
REMARK   51  A    between atoms: _156  and  _157
REMARK   52  A    between atoms: _157  and  _158
REMARK   53  A    between atoms: _161  and  _163
REMARK   54  A    between atoms: _163  and  _164
REMARK   55  A    between atoms: _163  and  _166
REMARK   56  A    between atoms: _166  and  _167
REMARK   57  A    between atoms: _172  and  _174
REMARK   58  A    between atoms: _174  and  _175
REMARK   59  A    between atoms: _174  and  _177
REMARK   60  A    between atoms: _177  and  _178
REMARK   61  A    between atoms: _178  and  _179
REMARK   62  A    between atoms: _182  and  _184
REMARK   63  A    between atoms: _184  and  _185
REMARK   64  A    between atoms: _184  and  _187
REMARK   65  A    between atoms: _187  and  _188
REMARK   66  A    between atoms: _191  and  _193
REMARK   67  A    between atoms: _193  and  _194
REMARK   68  A    between atoms: _193  and  _196
REMARK   69  A    between atoms: _196  and  _197
REMARK   70  A    between atoms: _198  and  ZN_411
REMARK   71  A    between atoms: _202  and  _204
REMARK   72  A    between atoms: _204  and  _205
REMARK   73  A    between atoms: _204  and  _207
REMARK   74  A    between atoms: _207  and  _208
REMARK   75  A    between atoms: _211  and  _213
REMARK   76  A    between atoms: _213  and  _214
REMARK   77  A    between atoms: _213  and  _216
REMARK   78  A    between atoms: _219  and  _221
REMARK   79  A    between atoms: _221  and  _222
REMARK   80  A    between atoms: _221  and  _224
REMARK   81  A    between atoms: _224  and  _225
REMARK   82  A    between atoms: _230  and  _232
REMARK   83  A    between atoms: _232  and  _233
REMARK   84  A    between atoms: _232  and  _235
REMARK   85  A    between atoms: _235  and  _236
REMARK   86  A    between atoms: _246  and  _248
REMARK   87  A    between atoms: _248  and  _249
REMARK   88  A    between atoms: _248  and  _251
REMARK   89  A    between atoms: _251  and  _252
REMARK   90  A    between atoms: _258  and  _260
REMARK   91  A    between atoms: _260  and  _261
REMARK   92  A    between atoms: _260  and  _263
REMARK   93  A    between atoms: _266  and  _268
REMARK   94  A    between atoms: _268  and  _269
REMARK   95  A    between atoms: _268  and  _271
REMARK   96  A    between atoms: _271  and  _272
REMARK   97  A    between atoms: _275  and  _277
REMARK   98  A    between atoms: _277  and  _278
REMARK   99  A    between atoms: _277  and  _280
REMARK  100  A    between atoms: _283  and  _285
REMARK  101  A    between atoms: _285  and  _286
REMARK  102  A    between atoms: _285  and  _288
REMARK  103  A    between atoms: _288  and  _289
REMARK  104  A    between atoms: _292  and  _294
REMARK  105  A    between atoms: _294  and  _295
REMARK  106  A    between atoms: _294  and  _297
REMARK  107  A    between atoms: _297  and  _298
REMARK  108  A    between atoms: _300  and  _302
REMARK  109  A    between atoms: _302  and  _303
REMARK  110  A    between atoms: _302  and  _305
REMARK  111  A    between atoms: _305  and  _306
REMARK  112  A    between atoms: _309  and  _311
REMARK  113  A    between atoms: _311  and  _312
REMARK  114  A    between atoms: _311  and  _314
REMARK  115  A    between atoms: _314  and  _315
REMARK  116  A    between atoms: _318  and  _320
REMARK  117  A    between atoms: _320  and  _321
REMARK  118  A    between atoms: _320  and  _323
REMARK  119  A    between atoms: _323  and  _324
REMARK  120  A    between atoms: _328  and  _329
REMARK  121  A    between atoms: _335  and  _336
REMARK  122  A    between atoms: _341  and  _343
REMARK  123  A    between atoms: _343  and  _344
REMARK  124  A    between atoms: _343  and  _346
REMARK  125  A    between atoms: _346  and  _347
REMARK  126  A    between atoms: _350  and  _352
REMARK  127  A    between atoms: _352  and  _353
REMARK  128  A    between atoms: _352  and  _355
REMARK  129  A    between atoms: _355  and  _356
REMARK  130  A    between atoms: _359  and  _361
REMARK  131  A    between atoms: _361  and  _362
REMARK  132  A    between atoms: _361  and  _364
REMARK  133  A    between atoms: _367  and  _369
REMARK  134  A    between atoms: _369  and  _370
REMARK  135  A    between atoms: _369  and  _372
REMARK  136  A    between atoms: _372  and  _373
REMARK  137  A    between atoms: _383  and  _385
REMARK  138  A    between atoms: _385  and  _386
REMARK  139  A    between atoms: _385  and  _388
REMARK  140  A    between atoms: _388  and  _389
REMARK  141  A    between atoms: _394  and  _396
REMARK  142  A    between atoms: _396  and  _397
REMARK  143  A    between atoms: _396  and  _399
REMARK  144  A    between atoms: _399  and  _400
REMARK  145  A    between atoms: _400  and  _401
REMARK  146  A    between atoms: _401  and  _402
REMARK                            x       y       z     vdW  Elec       q    Type
REMARK                         _______ _______ _______ _____ _____    ______ ____
ROOT
ATOM      1  CB  PHE A   1      -7.903  12.867  14.156  0.00  0.00    +0.051 C 
ENDROOT
BRANCH   1   2
ATOM      2  CG  PHE A   1      -7.371  11.511  14.480  0.00  0.00    -0.020 A 
ATOM      3  CD2 PHE A   1      -8.166  10.579  15.131  0.00  0.00    -0.004 A 
ATOM      4  CE2 PHE A   1      -7.684   9.303  15.420  0.00  0.00    -0.000 A 
ATOM      5  CZ  PHE A   1      -6.389   8.955  15.055  0.00  0.00    -0.000 A 
ATOM      6  CE1 PHE A   1      -5.581   9.882  14.403  0.00  0.00    -0.000 A 
ATOM      7  CD1 PHE A   1      -6.077  11.155  14.120  0.00  0.00    -0.004 A 
ENDBRANCH   1   2
BRANCH   1   8
ATOM      8  CA  PHE A   1      -7.792  13.864  15.308  0.00  0.00    +0.137 C 
BRANCH   8   9
ATOM      9  N   PHE A   1      -8.368  15.142  14.911  0.00  0.00    -0.239 NA
ATOM     10  H   PHE A   1      -8.688  15.265  13.929  0.00  0.00    +0.142 HD
ENDBRANCH   8   9
BRANCH   8  11
ATOM     11  C   PHE A   1      -6.340  13.986  15.772  0.00  0.00    +0.224 C 
ATOM     12  O   PHE A   1      -5.935  13.336  16.741  0.00  0.00    -0.287 OA
ENDBRANCH   8  11
ENDBRANCH   1   8
TORSDOF 4
REMARK  Name = ../refined-set-2016/2h4n/2h4n_pocket.pdb
REMARK  146 active torsions:
REMARK  status: ('A' for Active; 'I' for Inactive)
REMARK    1  A    between atoms: _1  and  _3
REMARK    2  A    between atoms: _3  and  _4
REMARK    3  A    between atoms: _3  and  _6
REMARK    4  A    between atoms: _6  and  _7
REMARK    5  A    between atoms: _17  and  _19
REMARK    6  A    between atoms: _19  and  _20
REMARK    7  A    between atoms: _19  and  _22
REMARK    8  A    between atoms: _22  and  _23
REMARK    9  A    between atoms: _28  and  _29
REMARK   10  A    between atoms: _31  and  _33
REMARK   11  A    between atoms: _33  and  _34
REMARK   12  A    between atoms: _33  and  _36
REMARK   13  A    between atoms: _36  and  _37
REMARK   14  A    between atoms: _40  and  _41
REMARK   15  A    between atoms: _46  and  _48
REMARK   16  A    between atoms: _48  and  _49
REMARK   17  A    between atoms: _48  and  _51
REMARK   18  A    between atoms: _51  and  _52
REMARK   19  A    between atoms: _57  and  _59
REMARK   20  A    between atoms: _59  and  _60
REMARK   21  A    between atoms: _63  and  _65
REMARK   22  A    between atoms: _65  and  _66
REMARK   23  A    between atoms: _65  and  _68
REMARK   24  A    between atoms: _68  and  _69
REMARK   25  A    between atoms: _74  and  _76
REMARK   26  A    between atoms: _76  and  _77
REMARK   27  A    between atoms: _76  and  _79
REMARK   28  A    between atoms: _79  and  _80
REMARK   29  A    between atoms: _80  and  _81
REMARK   30  A    between atoms: _84  and  _86
REMARK   31  A    between atoms: _86  and  _87
REMARK   32  A    between atoms: _86  and  _89
REMARK   33  A    between atoms: _89  and  _90
REMARK   34  A    between atoms: _93  and  _95
REMARK   35  A    between atoms: _95  and  _96
REMARK   36  A    between atoms: _95  and  _98
REMARK   37  A    between atoms: _98  and  _99
REMARK   38  A    between atoms: _99  and  _100
REMARK   39  A    between atoms: _105  and  _107
REMARK   40  A    between atoms: _107  and  _108
REMARK   41  A    between atoms: _107  and  _110
REMARK   42  A    between atoms: _110  and  _111
REMARK   43  A    between atoms: _117  and  _119
REMARK   44  A    between atoms: _123  and  _125
REMARK   45  A    between atoms: _130  and  _133
REMARK   46  A    between atoms: _133  and  _134
REMARK   47  A    between atoms: _142  and  _143
REMARK   48  A    between atoms: _151  and  _153
REMARK   49  A    between atoms: _153  and  _154
REMARK   50  A    between atoms: _153  and  _156
REMARK   51  A    between atoms: _156  and  _157
REMARK   52  A    between atoms: _157  and  _158
REMARK   53  A    between atoms: _161  and  _163
REMARK   54  A    between atoms: _163  and  _164
REMARK   55  A    between atoms: _163  and  _166
REMARK   56  A    between atoms: _166  and  _167
REMARK   57  A    between atoms: _172  and  _174
REMARK   58  A    between atoms: _174  and  _175
REMARK   59  A    between atoms: _174  and  _177
REMARK   60  A    between atoms: _177  and  _178
REMARK   61  A    between atoms: _178  and  _179
REMARK   62  A    between atoms: _182  and  _184
REMARK   63  A    between atoms: _184  and  _185
REMARK   64  A    between atoms: _184  and  _187
REMARK   65  A    between atoms: _187  and  _188
REMARK   66  A    between atoms: _191  and  _193
REMARK   67  A    between atoms: _193  and  _194
REMARK   68  A    between atoms: _193  and  _196
REMARK   69  A    between atoms: _196  and  _197
REMARK   70  A    between atoms: _198  and  ZN_411
REMARK   71  A    between atoms: _202  and  _204
REMARK   72  A    between atoms: _204  and  _205
REMARK   73  A    between atoms: _204  and  _207
REMARK   74  A    between atoms: _207  and  _208
REMARK   75  A    between atoms: _211  and  _213
REMARK   76  A    between atoms: _213  and  _214
REMARK   77  A    between atoms: _213  and  _216
REMARK   78  A    between atoms: _219  and  _221
REMARK   79  A    between atoms: _221  and  _222
REMARK   80  A    between atoms: _221  and  _224
REMARK   81  A    between atoms: _224  and  _225
REMARK   82  A    between atoms: _230  and  _232
REMARK   83  A    between atoms: _232  and  _233
REMARK   84  A    between atoms: _232  and  _235
REMARK   85  A    between atoms: _235  and  _236
REMARK   86  A    between atoms: _246  and  _248
REMARK   87  A    between atoms: _248  and  _249
REMARK   88  A    between atoms: _248  and  _251
REMARK   89  A    between atoms: _251  and  _252
REMARK   90  A    between atoms: _258  and  _260
REMARK   91  A    between atoms: _260  and  _261
REMARK   92  A    between atoms: _260  and  _263
REMARK   93  A    between atoms: _266  and  _268
REMARK   94  A    between atoms: _268  and  _269
REMARK   95  A    between atoms: _268  and  _271
REMARK   96  A    between atoms: _271  and  _272
REMARK   97  A    between atoms: _275  and  _277
REMARK   98  A    between atoms: _277  and  _278
REMARK   99  A    between atoms: _277  and  _280
REMARK  100  A    between atoms: _283  and  _285
REMARK  101  A    between atoms: _285  and  _286
REMARK  102  A    between atoms: _285  and  _288
REMARK  103  A    between atoms: _288  and  _289
REMARK  104  A    between atoms: _292  and  _294
REMARK  105  A    between atoms: _294  and  _295
REMARK  106  A    between atoms: _294  and  _297
REMARK  107  A    between atoms: _297  and  _298
REMARK  108  A    between atoms: _300  and  _302
REMARK  109  A    between atoms: _302  and  _303
REMARK  110  A    between atoms: _302  and  _305
REMARK  111  A    between atoms: _305  and  _306
REMARK  112  A    between atoms: _309  and  _311
REMARK  113  A    between atoms: _311  and  _312
REMARK  114  A    between atoms: _311  and  _314
REMARK  115  A    between atoms: _314  and  _315
REMARK  116  A    between atoms: _318  and  _320
REMARK  117  A    between atoms: _320  and  _321
REMARK  118  A    between atoms: _320  and  _323
REMARK  119  A    between atoms: _323  and  _324
REMARK  120  A    between atoms: _328  and  _329
REMARK  121  A    between atoms: _335  and  _336
REMARK  122  A    between atoms: _341  and  _343
REMARK  123  A    between atoms: _343  and  _344
REMARK  124  A    between atoms: _343  and  _346
REMARK  125  A    between atoms: _346  and  _347
REMARK  126  A    between atoms: _350  and  _352
REMARK  127  A    between atoms: _352  and  _353
REMARK  128  A    between atoms: _352  and  _355
REMARK  129  A    between atoms: _355  and  _356
REMARK  130  A    between atoms: _359  and  _361
REMARK  131  A    between atoms: _361  and  _362
REMARK  132  A    between atoms: _361  and  _364
REMARK  133  A    between atoms: _367  and  _369
REMARK  134  A    between atoms: _369  and  _370
REMARK  135  A    between atoms: _369  and  _372
REMARK  136  A    between atoms: _372  and  _373
REMARK  137  A    between atoms: _383  and  _385
REMARK  138  A    between atoms: _385  and  _386
REMARK  139  A    between atoms: _385  and  _388
REMARK  140  A    between atoms: _388  and  _389
REMARK  141  A    between atoms: _394  and  _396
REMARK  142  A    between atoms: _396  and  _397
REMARK  143  A    between atoms: _396  and  _399
REMARK  144  A    between atoms: _399  and  _400
REMARK  145  A    between atoms: _400  and  _401
REMARK  146  A    between atoms: _401  and  _402
REMARK                            x       y       z     vdW  Elec       q    Type
REMARK                         _______ _______ _______ _____ _____    ______ ____
ROOT
ATOM      1  CA  VAL A   1      -4.116  11.574  19.962  0.00  0.00    +0.133 C 
ENDROOT
BRANCH   1   2
ATOM      2  CB  VAL A   1      -3.437  10.983  18.683  0.00  0.00    +0.023 C 
ATOM      3  CG2 VAL A   1      -2.574  12.024  17.976  0.00  0.00    +0.002 C 
ATOM      4  CG1 VAL A   1      -4.491  10.425  17.748  0.00  0.00    +0.002 C 
ENDBRANCH   1   2
BRANCH   1   5
ATOM      5  N   VAL A   1      -5.069  12.645  19.655  0.00  0.00    -0.239 NA
ATOM      6  H   VAL A   1      -5.089  13.057  18.700  0.00  0.00    +0.142 HD
ENDBRANCH   1   5
BRANCH   1   7
ATOM      7  C   VAL A   1      -3.052  11.958  20.998  0.00  0.00    +0.224 C 
ATOM      8  O   VAL A   1      -2.352  11.093  21.532  0.00  0.00    -0.287 OA
ENDBRANCH   1   7
TORSDOF 3
REMARK  Name = ../refined-set-2016/2h4n/2h4n_pocket.pdb
REMARK  146 active torsions:
REMARK  status: ('A' for Active; 'I' for Inactive)
REMARK    1  A    between atoms: _1  and  _3
REMARK    2  A    between atoms: _3  and  _4
REMARK    3  A    between atoms: _3  and  _6
REMARK    4  A    between atoms: _6  and  _7
REMARK    5  A    between atoms: _17  and  _19
REMARK    6  A    between atoms: _19  and  _20
REMARK    7  A    between atoms: _19  and  _22
REMARK    8  A    between atoms: _22  and  _23
REMARK    9  A    between atoms: _28  and  _29
REMARK   10  A    between atoms: _31  and  _33
REMARK   11  A    between atoms: _33  and  _34
REMARK   12  A    between atoms: _33  and  _36
REMARK   13  A    between atoms: _36  and  _37
REMARK   14  A    between atoms: _40  and  _41
REMARK   15  A    between atoms: _46  and  _48
REMARK   16  A    between atoms: _48  and  _49
REMARK   17  A    between atoms: _48  and  _51
REMARK   18  A    between atoms: _51  and  _52
REMARK   19  A    between atoms: _57  and  _59
REMARK   20  A    between atoms: _59  and  _60
REMARK   21  A    between atoms: _63  and  _65
REMARK   22  A    between atoms: _65  and  _66
REMARK   23  A    between atoms: _65  and  _68
REMARK   24  A    between atoms: _68  and  _69
REMARK   25  A    between atoms: _74  and  _76
REMARK   26  A    between atoms: _76  and  _77
REMARK   27  A    between atoms: _76  and  _79
REMARK   28  A    between atoms: _79  and  _80
REMARK   29  A    between atoms: _80  and  _81
REMARK   30  A    between atoms: _84  and  _86
REMARK   31  A    between atoms: _86  and  _87
REMARK   32  A    between atoms: _86  and  _89
REMARK   33  A    between atoms: _89  and  _90
REMARK   34  A    between atoms: _93  and  _95
REMARK   35  A    between atoms: _95  and  _96
REMARK   36  A    between atoms: _95  and  _98
REMARK   37  A    between atoms: _98  and  _99
REMARK   38  A    between atoms: _99  and  _100
REMARK   39  A    between atoms: _105  and  _107
REMARK   40  A    between atoms: _107  and  _108
REMARK   41  A    between atoms: _107  and  _110
REMARK   42  A    between atoms: _110  and  _111
REMARK   43  A    between atoms: _117  and  _119
REMARK   44  A    between atoms: _123  and  _125
REMARK   45  A    between atoms: _130  and  _133
REMARK   46  A    between atoms: _133  and  _134
REMARK   47  A    between atoms: _142  and  _143
REMARK   48  A    between atoms: _151  and  _153
REMARK   49  A    between atoms: _153  and  _154
REMARK   50  A    between atoms: _153  and  _156
REMARK   51  A    between atoms: _156  and  _157
REMARK   52  A    between atoms: _157  and  _158
REMARK   53  A    between atoms: _161  and  _163
REMARK   54  A    between atoms: _163  and  _164
REMARK   55  A    between atoms: _163  and  _166
REMARK   56  A    between atoms: _166  and  _167
REMARK   57  A    between atoms: _172  and  _174
REMARK   58  A    between atoms: _174  and  _175
REMARK   59  A    between atoms: _174  and  _177
REMARK   60  A    between atoms: _177  and  _178
REMARK   61  A    between atoms: _178  and  _179
REMARK   62  A    between atoms: _182  and  _184
REMARK   63  A    between atoms: _184  and  _185
REMARK   64  A    between atoms: _184  and  _187
REMARK   65  A    between atoms: _187  and  _188
REMARK   66  A    between atoms: _191  and  _193
REMARK   67  A    between atoms: _193  and  _194
REMARK   68  A    between atoms: _193  and  _196
REMARK   69  A    between atoms: _196  and  _197
REMARK   70  A    between atoms: _198  and  ZN_411
REMARK   71  A    between atoms: _202  and  _204
REMARK   72  A    between atoms: _204  and  _205
REMARK   73  A    between atoms: _204  and  _207
REMARK   74  A    between atoms: _207  and  _208
REMARK   75  A    between atoms: _211  and  _213
REMARK   76  A    between atoms: _213  and  _214
REMARK   77  A    between atoms: _213  and  _216
REMARK   78  A    between atoms: _219  and  _221
REMARK   79  A    between atoms: _221  and  _222
REMARK   80  A    between atoms: _221  and  _224
REMARK   81  A    between atoms: _224  and  _225
REMARK   82  A    between atoms: _230  and  _232
REMARK   83  A    between atoms: _232  and  _233
REMARK   84  A    between atoms: _232  and  _235
REMARK   85  A    between atoms: _235  and  _236
REMARK   86  A    between atoms: _246  and  _248
REMARK   87  A    between atoms: _248  and  _249
REMARK   88  A    between atoms: _248  and  _251
REMARK   89  A    between atoms: _251  and  _252
REMARK   90  A    between atoms: _258  and  _260
REMARK   91  A    between atoms: _260  and  _261
REMARK   92  A    between atoms: _260  and  _263
REMARK   93  A    between atoms: _266  and  _268
REMARK   94  A    between atoms: _268  and  _269
REMARK   95  A    between atoms: _268  and  _271
REMARK   96  A    between atoms: _271  and  _272
REMARK   97  A    between atoms: _275  and  _277
REMARK   98  A    between atoms: _277  and  _278
REMARK   99  A    between atoms: _277  and  _280
REMARK  100  A    between atoms: _283  and  _285
REMARK  101  A    between atoms: _285  and  _286
REMARK  102  A    between atoms: _285  and  _288
REMARK  103  A    between atoms: _288  and  _289
REMARK  104  A    between atoms: _292  and  _294
REMARK  105  A    between atoms: _294  and  _295
REMARK  106  A    between atoms: _294  and  _297
REMARK  107  A    between atoms: _297  and  _298
REMARK  108  A    between atoms: _300  and  _302
REMARK  109  A    between atoms: _302  and  _303
REMARK  110  A    between atoms: _302  and  _305
REMARK  111  A    between atoms: _305  and  _306
REMARK  112  A    between atoms: _309  and  _311
REMARK  113  A    between atoms: _311  and  _312
REMARK  114  A    between atoms: _311  and  _314
REMARK  115  A    between atoms: _314  and  _315
REMARK  116  A    between atoms: _318  and  _320
REMARK  117  A    between atoms: _320  and  _321
REMARK  118  A    between atoms: _320  and  _323
REMARK  119  A    between atoms: _323  and  _324
REMARK  120  A    between atoms: _328  and  _329
REMARK  121  A    between atoms: _335  and  _336
REMARK  122  A    between atoms: _341  and  _343
REMARK  123  A    between atoms: _343  and  _344
REMARK  124  A    between atoms: _343  and  _346
REMARK  125  A    between atoms: _346  and  _347
REMARK  126  A    between atoms: _350  and  _352
REMARK  127  A    between atoms: _352  and  _353
REMARK  128  A    between atoms: _352  and  _355
REMARK  129  A    between atoms: _355  and  _356
REMARK  130  A    between atoms: _359  and  _361
REMARK  131  A    between atoms: _361  and  _362
REMARK  132  A    between atoms: _361  and  _364
REMARK  133  A    between atoms: _367  and  _369
REMARK  134  A    between atoms: _369  and  _370
REMARK  135  A    between atoms: _369  and  _372
REMARK  136  A    between atoms: _372  and  _373
REMARK  137  A    between atoms: _383  and  _385
REMARK  138  A    between atoms: _385  and  _386
REMARK  139  A    between atoms: _385  and  _388
REMARK  140  A    between atoms: _388  and  _389
REMARK  141  A    between atoms: _394  and  _396
REMARK  142  A    between atoms: _396  and  _397
REMARK  143  A    between atoms: _396  and  _399
REMARK  144  A    between atoms: _399  and  _400
REMARK  145  A    between atoms: _400  and  _401
REMARK  146  A    between atoms: _401  and  _402
REMARK                            x       y       z     vdW  Elec       q    Type
REMARK                         _______ _______ _______ _____ _____    ______ ____
ROOT
ATOM      1  CA  LEU A   1      -9.787   8.562  21.560  0.00  0.00    +0.133 C 
ENDROOT
BRANCH   1   2
ATOM      2  N   LEU A   1      -9.065   9.524  22.386  0.00  0.00    -0.239 NA
ATOM      3  H   LEU A   1      -8.387   9.177  23.095  0.00  0.00    +0.142 HD
ENDBRANCH   1   2
BRANCH   1   4
ATOM      4  C   LEU A   1     -10.622   7.559  22.340  0.00  0.00    +0.224 C 
ATOM      5  O   LEU A   1     -10.339   7.255  23.507  0.00  0.00    -0.287 OA
ENDBRANCH   1   4
BRANCH   1   6
ATOM      6  CB  LEU A   1      -8.815   7.751  20.693  0.00  0.00    +0.025 C 
BRANCH   6   7
ATOM      7  CG  LEU A   1      -7.835   8.399  19.719  0.00  0.00    +0.002 C 
ATOM      8  CD2 LEU A   1      -8.499   9.524  18.947  0.00  0.00    +0.000 C 
ATOM      9  CD1 LEU A   1      -7.325   7.318  18.768  0.00  0.00    +0.000 C 
ENDBRANCH   6   7
ENDBRANCH   1   6
TORSDOF 4
REMARK  Name = ../refined-set-2016/2h4n/2h4n_pocket.pdb
REMARK  146 active torsions:
REMARK  status: ('A' for Active; 'I' for Inactive)
REMARK    1  A    between atoms: _1  and  _3
REMARK    2  A    between atoms: _3  and  _4
REMARK    3  A    between atoms: _3  and  _6
REMARK    4  A    between atoms: _6  and  _7
REMARK    5  A    between atoms: _17  and  _19
REMARK    6  A    between atoms: _19  and  _20
REMARK    7  A    between atoms: _19  and  _22
REMARK    8  A    between atoms: _22  and  _23
REMARK    9  A    between atoms: _28  and  _29
REMARK   10  A    between atoms: _31  and  _33
REMARK   11  A    between atoms: _33  and  _34
REMARK   12  A    between atoms: _33  and  _36
REMARK   13  A    between atoms: _36  and  _37
REMARK   14  A    between atoms: _40  and  _41
REMARK   15  A    between atoms: _46  and  _48
REMARK   16  A    between atoms: _48  and  _49
REMARK   17  A    between atoms: _48  and  _51
REMARK   18  A    between atoms: _51  and  _52
REMARK   19  A    between atoms: _57  and  _59
REMARK   20  A    between atoms: _59  and  _60
REMARK   21  A    between atoms: _63  and  _65
REMARK   22  A    between atoms: _65  and  _66
REMARK   23  A    between atoms: _65  and  _68
REMARK   24  A    between atoms: _68  and  _69
REMARK   25  A    between atoms: _74  and  _76
REMARK   26  A    between atoms: _76  and  _77
REMARK   27  A    between atoms: _76  and  _79
REMARK   28  A    between atoms: _79  and  _80
REMARK   29  A    between atoms: _80  and  _81
REMARK   30  A    between atoms: _84  and  _86
REMARK   31  A    between atoms: _86  and  _87
REMARK   32  A    between atoms: _86  and  _89
REMARK   33  A    between atoms: _89  and  _90
REMARK   34  A    between atoms: _93  and  _95
REMARK   35  A    between atoms: _95  and  _96
REMARK   36  A    between atoms: _95  and  _98
REMARK   37  A    between atoms: _98  and  _99
REMARK   38  A    between atoms: _99  and  _100
REMARK   39  A    between atoms: _105  and  _107
REMARK   40  A    between atoms: _107  and  _108
REMARK   41  A    between atoms: _107  and  _110
REMARK   42  A    between atoms: _110  and  _111
REMARK   43  A    between atoms: _117  and  _119
REMARK   44  A    between atoms: _123  and  _125
REMARK   45  A    between atoms: _130  and  _133
REMARK   46  A    between atoms: _133  and  _134
REMARK   47  A    between atoms: _142  and  _143
REMARK   48  A    between atoms: _151  and  _153
REMARK   49  A    between atoms: _153  and  _154
REMARK   50  A    between atoms: _153  and  _156
REMARK   51  A    between atoms: _156  and  _157
REMARK   52  A    between atoms: _157  and  _158
REMARK   53  A    between atoms: _161  and  _163
REMARK   54  A    between atoms: _163  and  _164
REMARK   55  A    between atoms: _163  and  _166
REMARK   56  A    between atoms: _166  and  _167
REMARK   57  A    between atoms: _172  and  _174
REMARK   58  A    between atoms: _174  and  _175
REMARK   59  A    between atoms: _174  and  _177
REMARK   60  A    between atoms: _177  and  _178
REMARK   61  A    between atoms: _178  and  _179
REMARK   62  A    between atoms: _182  and  _184
REMARK   63  A    between atoms: _184  and  _185
REMARK   64  A    between atoms: _184  and  _187
REMARK   65  A    between atoms: _187  and  _188
REMARK   66  A    between atoms: _191  and  _193
REMARK   67  A    between atoms: _193  and  _194
REMARK   68  A    between atoms: _193  and  _196
REMARK   69  A    between atoms: _196  and  _197
REMARK   70  A    between atoms: _198  and  ZN_411
REMARK   71  A    between atoms: _202  and  _204
REMARK   72  A    between atoms: _204  and  _205
REMARK   73  A    between atoms: _204  and  _207
REMARK   74  A    between atoms: _207  and  _208
REMARK   75  A    between atoms: _211  and  _213
REMARK   76  A    between atoms: _213  and  _214
REMARK   77  A    between atoms: _213  and  _216
REMARK   78  A    between atoms: _219  and  _221
REMARK   79  A    between atoms: _221  and  _222
REMARK   80  A    between atoms: _221  and  _224
REMARK   81  A    between atoms: _224  and  _225
REMARK   82  A    between atoms: _230  and  _232
REMARK   83  A    between atoms: _232  and  _233
REMARK   84  A    between atoms: _232  and  _235
REMARK   85  A    between atoms: _235  and  _236
REMARK   86  A    between atoms: _246  and  _248
REMARK   87  A    between atoms: _248  and  _249
REMARK   88  A    between atoms: _248  and  _251
REMARK   89  A    between atoms: _251  and  _252
REMARK   90  A    between atoms: _258  and  _260
REMARK   91  A    between atoms: _260  and  _261
REMARK   92  A    between atoms: _260  and  _263
REMARK   93  A    between atoms: _266  and  _268
REMARK   94  A    between atoms: _268  and  _269
REMARK   95  A    between atoms: _268  and  _271
REMARK   96  A    between atoms: _271  and  _272
REMARK   97  A    between atoms: _275  and  _277
REMARK   98  A    between atoms: _277  and  _278
REMARK   99  A    between atoms: _277  and  _280
REMARK  100  A    between atoms: _283  and  _285
REMARK  101  A    between atoms: _285  and  _286
REMARK  102  A    between atoms: _285  and  _288
REMARK  103  A    between atoms: _288  and  _289
REMARK  104  A    between atoms: _292  and  _294
REMARK  105  A    between atoms: _294  and  _295
REMARK  106  A    between atoms: _294  and  _297
REMARK  107  A    between atoms: _297  and  _298
REMARK  108  A    between atoms: _300  and  _302
REMARK  109  A    between atoms: _302  and  _303
REMARK  110  A    between atoms: _302  and  _305
REMARK  111  A    between atoms: _305  and  _306
REMARK  112  A    between atoms: _309  and  _311
REMARK  113  A    between atoms: _311  and  _312
REMARK  114  A    between atoms: _311  and  _314
REMARK  115  A    between atoms: _314  and  _315
REMARK  116  A    between atoms: _318  and  _320
REMARK  117  A    between atoms: _320  and  _321
REMARK  118  A    between atoms: _320  and  _323
REMARK  119  A    between atoms: _323  and  _324
REMARK  120  A    between atoms: _328  and  _329
REMARK  121  A    between atoms: _335  and  _336
REMARK  122  A    between atoms: _341  and  _343
REMARK  123  A    between atoms: _343  and  _344
REMARK  124  A    between atoms: _343  and  _346
REMARK  125  A    between atoms: _346  and  _347
REMARK  126  A    between atoms: _350  and  _352
REMARK  127  A    between atoms: _352  and  _353
REMARK  128  A    between atoms: _352  and  _355
REMARK  129  A    between atoms: _355  and  _356
REMARK  130  A    between atoms: _359  and  _361
REMARK  131  A    between atoms: _361  and  _362
REMARK  132  A    between atoms: _361  and  _364
REMARK  133  A    between atoms: _367  and  _369
REMARK  134  A    between atoms: _369  and  _370
REMARK  135  A    between atoms: _369  and  _372
REMARK  136  A    between atoms: _372  and  _373
REMARK  137  A    between atoms: _383  and  _385
REMARK  138  A    between atoms: _385  and  _386
REMARK  139  A    between atoms: _385  and  _388
REMARK  140  A    between atoms: _388  and  _389
REMARK  141  A    between atoms: _394  and  _396
REMARK  142  A    between atoms: _396  and  _397
REMARK  143  A    between atoms: _396  and  _399
REMARK  144  A    between atoms: _399  and  _400
REMARK  145  A    between atoms: _400  and  _401
REMARK  146  A    between atoms: _401  and  _402
REMARK                            x       y       z     vdW  Elec       q    Type
REMARK                         _______ _______ _______ _____ _____    ______ ____
ROOT
ATOM      1  C   VAL A   1     -13.037   1.621  20.734  0.00  0.00    +0.238 C 
ATOM      2  O   VAL A   1     -12.951   1.150  21.875  0.00  0.00    -0.274 OA
ATOM      3  N   LEU A   2     -13.988   1.288  19.870  0.00  0.00    -0.298 N 
ATOM      4  H   LEU A   2     -14.035   1.794  18.962  0.00  0.00    +0.150 HD
ENDROOT
BRANCH   1   5
ATOM      5  CA  VAL A   1     -12.103   2.729  20.273  0.00  0.00    +0.145 C 
BRANCH   5   6
ATOM      6  CB  VAL A   1     -10.707   2.139  19.901  0.00  0.00    +0.025 C 
ATOM      7  CG2 VAL A   1      -9.719   3.262  19.543  0.00  0.00    +0.002 C 
ATOM      8  CG1 VAL A   1     -10.858   1.166  18.715  0.00  0.00    +0.002 C 
ENDBRANCH   5   6
BRANCH   5   9
ATOM      9  N   VAL A   1     -12.052   3.752  21.316  0.00  0.00    -0.238 NA
ATOM     10  H   VAL A   1     -11.629   3.537  22.241  0.00  0.00    +0.142 HD
ENDBRANCH   5   9
ENDBRANCH   1   5
BRANCH   3  11
ATOM     11  CA  LEU A   2     -14.969   0.245  20.138  0.00  0.00    +0.137 C 
BRANCH  11  12
ATOM     12  C   LEU A   2     -14.422  -1.028  19.501  0.00  0.00    +0.227 C 
ATOM     13  O   LEU A   2     -14.179  -1.064  18.294  0.00  0.00    -0.286 OA
ENDBRANCH  11  12
BRANCH  11  14
ATOM     14  CB  LEU A   2     -16.284   0.642  19.481  0.00  0.00    +0.028 C 
BRANCH  14  15
ATOM     15  CG  LEU A   2     -17.593   0.031  19.946  0.00  0.00    +0.002 C 
ATOM     16  CD2 LEU A   2     -17.806   0.358  21.412  0.00  0.00    +0.000 C 
ATOM     17  CD1 LEU A   2     -18.714   0.624  19.091  0.00  0.00    +0.000 C 
ENDBRANCH  14  15
ENDBRANCH  11  14
ENDBRANCH   3  11
TORSDOF 7
REMARK  Name = ../refined-set-2016/2h4n/2h4n_pocket.pdb
REMARK  146 active torsions:
REMARK  status: ('A' for Active; 'I' for Inactive)
REMARK    1  A    between atoms: _1  and  _3
REMARK    2  A    between atoms: _3  and  _4
REMARK    3  A    between atoms: _3  and  _6
REMARK    4  A    between atoms: _6  and  _7
REMARK    5  A    between atoms: _17  and  _19
REMARK    6  A    between atoms: _19  and  _20
REMARK    7  A    between atoms: _19  and  _22
REMARK    8  A    between atoms: _22  and  _23
REMARK    9  A    between atoms: _28  and  _29
REMARK   10  A    between atoms: _31  and  _33
REMARK   11  A    between atoms: _33  and  _34
REMARK   12  A    between atoms: _33  and  _36
REMARK   13  A    between atoms: _36  and  _37
REMARK   14  A    between atoms: _40  and  _41
REMARK   15  A    between atoms: _46  and  _48
REMARK   16  A    between atoms: _48  and  _49
REMARK   17  A    between atoms: _48  and  _51
REMARK   18  A    between atoms: _51  and  _52
REMARK   19  A    between atoms: _57  and  _59
REMARK   20  A    between atoms: _59  and  _60
REMARK   21  A    between atoms: _63  and  _65
REMARK   22  A    between atoms: _65  and  _66
REMARK   23  A    between atoms: _65  and  _68
REMARK   24  A    between atoms: _68  and  _69
REMARK   25  A    between atoms: _74  and  _76
REMARK   26  A    between atoms: _76  and  _77
REMARK   27  A    between atoms: _76  and  _79
REMARK   28  A    between atoms: _79  and  _80
REMARK   29  A    between atoms: _80  and  _81
REMARK   30  A    between atoms: _84  and  _86
REMARK   31  A    between atoms: _86  and  _87
REMARK   32  A    between atoms: _86  and  _89
REMARK   33  A    between atoms: _89  and  _90
REMARK   34  A    between atoms: _93  and  _95
REMARK   35  A    between atoms: _95  and  _96
REMARK   36  A    between atoms: _95  and  _98
REMARK   37  A    between atoms: _98  and  _99
REMARK   38  A    between atoms: _99  and  _100
REMARK   39  A    between atoms: _105  and  _107
REMARK   40  A    between atoms: _107  and  _108
REMARK   41  A    between atoms: _107  and  _110
REMARK   42  A    between atoms: _110  and  _111
REMARK   43  A    between atoms: _117  and  _119
REMARK   44  A    between atoms: _123  and  _125
REMARK   45  A    between atoms: _130  and  _133
REMARK   46  A    between atoms: _133  and  _134
REMARK   47  A    between atoms: _142  and  _143
REMARK   48  A    between atoms: _151  and  _153
REMARK   49  A    between atoms: _153  and  _154
REMARK   50  A    between atoms: _153  and  _156
REMARK   51  A    between atoms: _156  and  _157
REMARK   52  A    between atoms: _157  and  _158
REMARK   53  A    between atoms: _161  and  _163
REMARK   54  A    between atoms: _163  and  _164
REMARK   55  A    between atoms: _163  and  _166
REMARK   56  A    between atoms: _166  and  _167
REMARK   57  A    between atoms: _172  and  _174
REMARK   58  A    between atoms: _174  and  _175
REMARK   59  A    between atoms: _174  and  _177
REMARK   60  A    between atoms: _177  and  _178
REMARK   61  A    between atoms: _178  and  _179
REMARK   62  A    between atoms: _182  and  _184
REMARK   63  A    between atoms: _184  and  _185
REMARK   64  A    between atoms: _184  and  _187
REMARK   65  A    between atoms: _187  and  _188
REMARK   66  A    between atoms: _191  and  _193
REMARK   67  A    between atoms: _193  and  _194
REMARK   68  A    between atoms: _193  and  _196
REMARK   69  A    between atoms: _196  and  _197
REMARK   70  A    between atoms: _198  and  ZN_411
REMARK   71  A    between atoms: _202  and  _204
REMARK   72  A    between atoms: _204  and  _205
REMARK   73  A    between atoms: _204  and  _207
REMARK   74  A    between atoms: _207  and  _208
REMARK   75  A    between atoms: _211  and  _213
REMARK   76  A    between atoms: _213  and  _214
REMARK   77  A    between atoms: _213  and  _216
REMARK   78  A    between atoms: _219  and  _221
REMARK   79  A    between atoms: _221  and  _222
REMARK   80  A    between atoms: _221  and  _224
REMARK   81  A    between atoms: _224  and  _225
REMARK   82  A    between atoms: _230  and  _232
REMARK   83  A    between atoms: _232  and  _233
REMARK   84  A    between atoms: _232  and  _235
REMARK   85  A    between atoms: _235  and  _236
REMARK   86  A    between atoms: _246  and  _248
REMARK   87  A    between atoms: _248  and  _249
REMARK   88  A    between atoms: _248  and  _251
REMARK   89  A    between atoms: _251  and  _252
REMARK   90  A    between atoms: _258  and  _260
REMARK   91  A    between atoms: _260  and  _261
REMARK   92  A    between atoms: _260  and  _263
REMARK   93  A    between atoms: _266  and  _268
REMARK   94  A    between atoms: _268  and  _269
REMARK   95  A    between atoms: _268  and  _271
REMARK   96  A    between atoms: _271  and  _272
REMARK   97  A    between atoms: _275  and  _277
REMARK   98  A    between atoms: _277  and  _278
REMARK   99  A    between atoms: _277  and  _280
REMARK  100  A    between atoms: _283  and  _285
REMARK  101  A    between atoms: _285  and  _286
REMARK  102  A    between atoms: _285  and  _288
REMARK  103  A    between atoms: _288  and  _289
REMARK  104  A    between atoms: _292  and  _294
REMARK  105  A    between atoms: _294  and  _295
REMARK  106  A    between atoms: _294  and  _297
REMARK  107  A    between atoms: _297  and  _298
REMARK  108  A    between atoms: _300  and  _302
REMARK  109  A    between atoms: _302  and  _303
REMARK  110  A    between atoms: _302  and  _305
REMARK  111  A    between atoms: _305  and  _306
REMARK  112  A    between atoms: _309  and  _311
REMARK  113  A    between atoms: _311  and  _312
REMARK  114  A    between atoms: _311  and  _314
REMARK  115  A    between atoms: _314  and  _315
REMARK  116  A    between atoms: _318  and  _320
REMARK  117  A    between atoms: _320  and  _321
REMARK  118  A    between atoms: _320  and  _323
REMARK  119  A    between atoms: _323  and  _324
REMARK  120  A    between atoms: _328  and  _329
REMARK  121  A    between atoms: _335  and  _336
REMARK  122  A    between atoms: _341  and  _343
REMARK  123  A    between atoms: _343  and  _344
REMARK  124  A    between atoms: _343  and  _346
REMARK  125  A    between atoms: _346  and  _347
REMARK  126  A    between atoms: _350  and  _352
REMARK  127  A    between atoms: _352  and  _353
REMARK  128  A    between atoms: _352  and  _355
REMARK  129  A    between atoms: _355  and  _356
REMARK  130  A    between atoms: _359  and  _361
REMARK  131  A    between atoms: _361  and  _362
REMARK  132  A    between atoms: _361  and  _364
REMARK  133  A    between atoms: _367  and  _369
REMARK  134  A    between atoms: _369  and  _370
REMARK  135  A    between atoms: _369  and  _372
REMARK  136  A    between atoms: _372  and  _373
REMARK  137  A    between atoms: _383  and  _385
REMARK  138  A    between atoms: _385  and  _386
REMARK  139  A    between atoms: _385  and  _388
REMARK  140  A    between atoms: _388  and  _389
REMARK  141  A    between atoms: _394  and  _396
REMARK  142  A    between atoms: _396  and  _397
REMARK  143  A    between atoms: _396  and  _399
REMARK  144  A    between atoms: _399  and  _400
REMARK  145  A    between atoms: _400  and  _401
REMARK  146  A    between atoms: _401  and  _402
REMARK                            x       y       z     vdW  Elec       q    Type
REMARK                         _______ _______ _______ _____ _____    ______ ____
ROOT
ATOM      1  C   THR A   4       0.870   1.367  16.429  0.00  0.00    +0.246 C 
ATOM      2  O   THR A   4       0.398   2.269  17.133  0.00  0.00    -0.273 OA
ATOM      3  N   PRO A   5       2.131   1.413  15.975  0.00  0.00    -0.272 N 
ATOM      4  CA  PRO A   5       2.919   2.628  16.200  0.00  0.00    +0.152 C 
ATOM      5  CB  PRO A   5       4.161   2.374  15.336  0.00  0.00    +0.031 C 
ATOM      6  CG  PRO A   5       4.374   0.902  15.521  0.00  0.00    +0.024 C 
ATOM      7  CD  PRO A   5       2.961   0.345  15.382  0.00  0.00    +0.094 C 
ENDROOT
BRANCH   4   8
ATOM      8  C   PRO A   5       2.071   3.803  15.669  0.00  0.00    +0.244 C 
ATOM      9  N   PRO A   6       2.210   5.007  16.251  0.00  0.00    -0.272 N 
ATOM     10  CA  PRO A   6       3.080   5.422  17.353  0.00  0.00    +0.152 C 
ATOM     11  CB  PRO A   6       3.029   6.943  17.250  0.00  0.00    +0.031 C 
ATOM     12  CG  PRO A   6       1.614   7.190  16.853  0.00  0.00    +0.024 C 
ATOM     13  CD  PRO A   6       1.370   6.134  15.795  0.00  0.00    +0.094 C 
ATOM     14  O   PRO A   5       1.356   3.649  14.677  0.00  0.00    -0.273 OA
BRANCH  10  15
ATOM     15  C   PRO A   6       2.729   4.905  18.761  0.00  0.00    +0.241 C 
ATOM     16  O   PRO A   6       3.334   5.338  19.739  0.00  0.00    -0.273 OA
ATOM     17  N   LEU A   7       1.728   4.029  18.862  0.00  0.00    -0.297 N 
ATOM     18  H   LEU A   7       1.202   3.771  18.003  0.00  0.00    +0.150 HD
BRANCH  17  19
ATOM     19  CA  LEU A   7       1.341   3.416  20.135  0.00  0.00    +0.149 C 
BRANCH  19  20
ATOM     20  C   LEU A   7       1.014   4.403  21.265  0.00  0.00    +0.241 C 
ATOM     21  O   LEU A   7       1.196   4.095  22.451  0.00  0.00    -0.273 OA
ATOM     22  N   LEU A   8       0.460   5.557  20.900  0.00  0.00    -0.298 N 
ATOM     23  H   LEU A   8       0.257   5.724  19.894  0.00  0.00    +0.150 HD
BRANCH  22  24
ATOM     24  CA  LEU A   8       0.129   6.595  21.873  0.00  0.00    +0.137 C 
BRANCH  24  25
ATOM     25  C   LEU A   8      -0.909   6.147  22.889  0.00  0.00    +0.227 C 
ATOM     26  O   LEU A   8      -1.898   5.496  22.554  0.00  0.00    -0.286 OA
ENDBRANCH  24  25
BRANCH  24  27
ATOM     27  CB  LEU A   8      -0.333   7.866  21.157  0.00  0.00    +0.028 C 
BRANCH  27  28
ATOM     28  CG  LEU A   8       0.716   8.451  20.202  0.00  0.00    +0.002 C 
ATOM     29  CD2 LEU A   8       1.951   8.874  20.976  0.00  0.00    +0.000 C 
ATOM     30  CD1 LEU A   8       0.144   9.626  19.434  0.00  0.00    +0.000 C 
ENDBRANCH  27  28
ENDBRANCH  24  27
ENDBRANCH  22  24
ENDBRANCH  19  20
BRANCH  19  31
ATOM     31  CB  LEU A   7       2.461   2.461  20.579  0.00  0.00    +0.029 C 
BRANCH  31  32
ATOM     32  CG  LEU A   7       2.844   1.344  19.599  0.00  0.00    +0.002 C 
ATOM     33  CD2 LEU A   7       4.244   0.830  19.905  0.00  0.00    +0.000 C 
ATOM     34  CD1 LEU A   7       1.818   0.219  19.653  0.00  0.00    +0.000 C 
ENDBRANCH  31  32
ENDBRANCH  19  31
ENDBRANCH  17  19
ENDBRANCH  10  15
ENDBRANCH   4   8
BRANCH   1  35
ATOM     35  CA  THR A   4       0.070   0.097  16.162  0.00  0.00    +0.176 C 
BRANCH  35  38
ATOM     36  C   THR A   3      -1.129  -1.083  17.933  0.00  0.00    +0.243 C 
ATOM     37  O   THR A   3      -0.518  -2.131  17.727  0.00  0.00    -0.273 OA
ATOM     38  N   THR A   4      -0.949   0.017  17.203  0.00  0.00    -0.295 N 
ATOM     39  H   THR A   4      -1.554   0.844  17.381  0.00  0.00    +0.150 HD
BRANCH  36  40
ATOM     40  CA  THR A   3      -2.185  -1.015  19.025  0.00  0.00    +0.176 C 
BRANCH  40  43
ATOM     41  C   LEU A   2      -2.428   1.215  19.936  0.00  0.00    +0.241 C 
ATOM     42  O   LEU A   2      -1.429   1.063  20.644  0.00  0.00    -0.273 OA
ATOM     43  N   THR A   3      -2.867   0.272  19.108  0.00  0.00    -0.295 N 
ATOM     44  H   THR A   3      -3.702   0.453  18.515  0.00  0.00    +0.150 HD
BRANCH  41  45
ATOM     45  CA  LEU A   2      -3.197   2.535  19.984  0.00  0.00    +0.149 C 
BRANCH  45  48
ATOM     46  C   SER A   1      -3.630   2.342  22.372  0.00  0.00    +0.241 C 
ATOM     47  O   SER A   1      -4.469   1.465  22.206  0.00  0.00    -0.274 OA
ATOM     48  N   LEU A   2      -3.007   2.951  21.367  0.00  0.00    -0.297 N 
ATOM     49  H   LEU A   2      -2.368   3.745  21.574  0.00  0.00    +0.150 HD
BRANCH  46  50
ATOM     50  CA  SER A   1      -3.258   2.821  23.773  0.00  0.00    +0.174 C 
BRANCH  50  51
ATOM     51  N   SER A   1      -3.966   2.134  24.855  0.00  0.00    -0.236 NA
ATOM     52  H   SER A   1      -4.112   1.106  24.791  0.00  0.00    +0.142 HD
ENDBRANCH  50  51
BRANCH  50  53
ATOM     53  CB  SER A   1      -1.759   2.582  23.939  0.00  0.00    +0.163 C 
BRANCH  53  54
ATOM     54  OG  SER A   1      -1.437   1.228  23.641  0.00  0.00    -0.380 OA
ATOM     55  H   SER A   1      -1.695   1.027  22.707  0.00  0.00    +0.211 HD
ENDBRANCH  53  54
ENDBRANCH  50  53
ENDBRANCH  46  50
ENDBRANCH  45  48
BRANCH  45  56
ATOM     56  CB  LEU A   2      -2.533   3.534  19.032  0.00  0.00    +0.029 C 
BRANCH  56  57
ATOM     57  CG  LEU A   2      -3.140   4.936  18.985  0.00  0.00    +0.002 C 
ATOM     58  CD2 LEU A   2      -4.567   4.841  18.457  0.00  0.00    +0.000 C 
ATOM     59  CD1 LEU A   2      -2.279   5.837  18.104  0.00  0.00    +0.000 C 
ENDBRANCH  56  57
ENDBRANCH  45  56
ENDBRANCH  41  45
ENDBRANCH  40  43
BRANCH  40  60
ATOM     60  CB  THR A   3      -3.172  -2.183  18.863  0.00  0.00    +0.137 C 
ATOM     61  CG2 THR A   3      -4.075  -2.288  20.097  0.00  0.00    +0.034 C 
BRANCH  60  62
ATOM     62  OG1 THR A   3      -3.976  -1.978  17.692  0.00  0.00    -0.382 OA
ATOM     63  HG1 THR A   3      -4.610  -2.732  17.592  0.00  0.00    +0.210 HD
ENDBRANCH  60  62
ENDBRANCH  40  60
ENDBRANCH  36  40
ENDBRANCH  35  38
BRANCH  35  64
ATOM     64  CB  THR A   4      -0.535   0.208  14.733  0.00  0.00    +0.137 C 
ATOM     65  CG2 THR A   4      -1.436  -0.987  14.425  0.00  0.00    +0.034 C 
BRANCH  64  66
ATOM     66  OG1 THR A   4      -1.300   1.416  14.623  0.00  0.00    -0.382 OA
ATOM     67  HG1 THR A   4      -2.032   1.403  15.289  0.00  0.00    +0.210 HD
ENDBRANCH  64  66
ENDBRANCH  35  64
ENDBRANCH   1  35
TORSDOF 26
REMARK  Name = ../refined-set-2016/2h4n/2h4n_pocket.pdb
REMARK  146 active torsions:
REMARK  status: ('A' for Active; 'I' for Inactive)
REMARK    1  A    between atoms: _1  and  _3
REMARK    2  A    between atoms: _3  and  _4
REMARK    3  A    between atoms: _3  and  _6
REMARK    4  A    between atoms: _6  and  _7
REMARK    5  A    between atoms: _17  and  _19
REMARK    6  A    between atoms: _19  and  _20
REMARK    7  A    between atoms: _19  and  _22
REMARK    8  A    between atoms: _22  and  _23
REMARK    9  A    between atoms: _28  and  _29
REMARK   10  A    between atoms: _31  and  _33
REMARK   11  A    between atoms: _33  and  _34
REMARK   12  A    between atoms: _33  and  _36
REMARK   13  A    between atoms: _36  and  _37
REMARK   14  A    between atoms: _40  and  _41
REMARK   15  A    between atoms: _46  and  _48
REMARK   16  A    between atoms: _48  and  _49
REMARK   17  A    between atoms: _48  and  _51
REMARK   18  A    between atoms: _51  and  _52
REMARK   19  A    between atoms: _57  and  _59
REMARK   20  A    between atoms: _59  and  _60
REMARK   21  A    between atoms: _63  and  _65
REMARK   22  A    between atoms: _65  and  _66
REMARK   23  A    between atoms: _65  and  _68
REMARK   24  A    between atoms: _68  and  _69
REMARK   25  A    between atoms: _74  and  _76
REMARK   26  A    between atoms: _76  and  _77
REMARK   27  A    between atoms: _76  and  _79
REMARK   28  A    between atoms: _79  and  _80
REMARK   29  A    between atoms: _80  and  _81
REMARK   30  A    between atoms: _84  and  _86
REMARK   31  A    between atoms: _86  and  _87
REMARK   32  A    between atoms: _86  and  _89
REMARK   33  A    between atoms: _89  and  _90
REMARK   34  A    between atoms: _93  and  _95
REMARK   35  A    between atoms: _95  and  _96
REMARK   36  A    between atoms: _95  and  _98
REMARK   37  A    between atoms: _98  and  _99
REMARK   38  A    between atoms: _99  and  _100
REMARK   39  A    between atoms: _105  and  _107
REMARK   40  A    between atoms: _107  and  _108
REMARK   41  A    between atoms: _107  and  _110
REMARK   42  A    between atoms: _110  and  _111
REMARK   43  A    between atoms: _117  and  _119
REMARK   44  A    between atoms: _123  and  _125
REMARK   45  A    between atoms: _130  and  _133
REMARK   46  A    between atoms: _133  and  _134
REMARK   47  A    between atoms: _142  and  _143
REMARK   48  A    between atoms: _151  and  _153
REMARK   49  A    between atoms: _153  and  _154
REMARK   50  A    between atoms: _153  and  _156
REMARK   51  A    between atoms: _156  and  _157
REMARK   52  A    between atoms: _157  and  _158
REMARK   53  A    between atoms: _161  and  _163
REMARK   54  A    between atoms: _163  and  _164
REMARK   55  A    between atoms: _163  and  _166
REMARK   56  A    between atoms: _166  and  _167
REMARK   57  A    between atoms: _172  and  _174
REMARK   58  A    between atoms: _174  and  _175
REMARK   59  A    between atoms: _174  and  _177
REMARK   60  A    between atoms: _177  and  _178
REMARK   61  A    between atoms: _178  and  _179
REMARK   62  A    between atoms: _182  and  _184
REMARK   63  A    between atoms: _184  and  _185
REMARK   64  A    between atoms: _184  and  _187
REMARK   65  A    between atoms: _187  and  _188
REMARK   66  A    between atoms: _191  and  _193
REMARK   67  A    between atoms: _193  and  _194
REMARK   68  A    between atoms: _193  and  _196
REMARK   69  A    between atoms: _196  and  _197
REMARK   70  A    between atoms: _198  and  ZN_411
REMARK   71  A    between atoms: _202  and  _204
REMARK   72  A    between atoms: _204  and  _205
REMARK   73  A    between atoms: _204  and  _207
REMARK   74  A    between atoms: _207  and  _208
REMARK   75  A    between atoms: _211  and  _213
REMARK   76  A    between atoms: _213  and  _214
REMARK   77  A    between atoms: _213  and  _216
REMARK   78  A    between atoms: _219  and  _221
REMARK   79  A    between atoms: _221  and  _222
REMARK   80  A    between atoms: _221  and  _224
REMARK   81  A    between atoms: _224  and  _225
REMARK   82  A    between atoms: _230  and  _232
REMARK   83  A    between atoms: _232  and  _233
REMARK   84  A    between atoms: _232  and  _235
REMARK   85  A    between atoms: _235  and  _236
REMARK   86  A    between atoms: _246  and  _248
REMARK   87  A    between atoms: _248  and  _249
REMARK   88  A    between atoms: _248  and  _251
REMARK   89  A    between atoms: _251  and  _252
REMARK   90  A    between atoms: _258  and  _260
REMARK   91  A    between atoms: _260  and  _261
REMARK   92  A    between atoms: _260  and  _263
REMARK   93  A    between atoms: _266  and  _268
REMARK   94  A    between atoms: _268  and  _269
REMARK   95  A    between atoms: _268  and  _271
REMARK   96  A    between atoms: _271  and  _272
REMARK   97  A    between atoms: _275  and  _277
REMARK   98  A    between atoms: _277  and  _278
REMARK   99  A    between atoms: _277  and  _280
REMARK  100  A    between atoms: _283  and  _285
REMARK  101  A    between atoms: _285  and  _286
REMARK  102  A    between atoms: _285  and  _288
REMARK  103  A    between atoms: _288  and  _289
REMARK  104  A    between atoms: _292  and  _294
REMARK  105  A    between atoms: _294  and  _295
REMARK  106  A    between atoms: _294  and  _297
REMARK  107  A    between atoms: _297  and  _298
REMARK  108  A    between atoms: _300  and  _302
REMARK  109  A    between atoms: _302  and  _303
REMARK  110  A    between atoms: _302  and  _305
REMARK  111  A    between atoms: _305  and  _306
REMARK  112  A    between atoms: _309  and  _311
REMARK  113  A    between atoms: _311  and  _312
REMARK  114  A    between atoms: _311  and  _314
REMARK  115  A    between atoms: _314  and  _315
REMARK  116  A    between atoms: _318  and  _320
REMARK  117  A    between atoms: _320  and  _321
REMARK  118  A    between atoms: _320  and  _323
REMARK  119  A    between atoms: _323  and  _324
REMARK  120  A    between atoms: _328  and  _329
REMARK  121  A    between atoms: _335  and  _336
REMARK  122  A    between atoms: _341  and  _343
REMARK  123  A    between atoms: _343  and  _344
REMARK  124  A    between atoms: _343  and  _346
REMARK  125  A    between atoms: _346  and  _347
REMARK  126  A    between atoms: _350  and  _352
REMARK  127  A    between atoms: _352  and  _353
REMARK  128  A    between atoms: _352  and  _355
REMARK  129  A    between atoms: _355  and  _356
REMARK  130  A    between atoms: _359  and  _361
REMARK  131  A    between atoms: _361  and  _362
REMARK  132  A    between atoms: _361  and  _364
REMARK  133  A    between atoms: _367  and  _369
REMARK  134  A    between atoms: _369  and  _370
REMARK  135  A    between atoms: _369  and  _372
REMARK  136  A    between atoms: _372  and  _373
REMARK  137  A    between atoms: _383  and  _385
REMARK  138  A    between atoms: _385  and  _386
REMARK  139  A    between atoms: _385  and  _388
REMARK  140  A    between atoms: _388  and  _389
REMARK  141  A    between atoms: _394  and  _396
REMARK  142  A    between atoms: _396  and  _397
REMARK  143  A    between atoms: _396  and  _399
REMARK  144  A    between atoms: _399  and  _400
REMARK  145  A    between atoms: _400  and  _401
REMARK  146  A    between atoms: _401  and  _402
REMARK                            x       y       z     vdW  Elec       q    Type
REMARK                         _______ _______ _______ _____ _____    ______ ____
ROOT
ATOM      1  CA  VAL A   1      -7.404   5.519  24.198  0.00  0.00    +0.133 C 
ENDROOT
BRANCH   1   2
ATOM      2  CB  VAL A   1      -7.181   4.320  23.196  0.00  0.00    +0.023 C 
ATOM      3  CG2 VAL A   1      -8.514   3.627  22.844  0.00  0.00    +0.002 C 
ATOM      4  CG1 VAL A   1      -6.472   4.796  21.928  0.00  0.00    +0.002 C 
ENDBRANCH   1   2
BRANCH   1   5
ATOM      5  N   VAL A   1      -6.147   6.213  24.441  0.00  0.00    -0.239 NA
ATOM      6  H   VAL A   1      -5.330   5.691  24.818  0.00  0.00    +0.142 HD
ENDBRANCH   1   5
BRANCH   1   7
ATOM      7  C   VAL A   1      -8.193   4.964  25.369  0.00  0.00    +0.224 C 
ATOM      8  O   VAL A   1      -7.642   4.351  26.283  0.00  0.00    -0.287 OA
ENDBRANCH   1   7
TORSDOF 3
REMARK  Name = ../refined-set-2016/2h4n/2h4n_pocket.pdb
REMARK  146 active torsions:
REMARK  status: ('A' for Active; 'I' for Inactive)
REMARK    1  A    between atoms: _1  and  _3
REMARK    2  A    between atoms: _3  and  _4
REMARK    3  A    between atoms: _3  and  _6
REMARK    4  A    between atoms: _6  and  _7
REMARK    5  A    between atoms: _17  and  _19
REMARK    6  A    between atoms: _19  and  _20
REMARK    7  A    between atoms: _19  and  _22
REMARK    8  A    between atoms: _22  and  _23
REMARK    9  A    between atoms: _28  and  _29
REMARK   10  A    between atoms: _31  and  _33
REMARK   11  A    between atoms: _33  and  _34
REMARK   12  A    between atoms: _33  and  _36
REMARK   13  A    between atoms: _36  and  _37
REMARK   14  A    between atoms: _40  and  _41
REMARK   15  A    between atoms: _46  and  _48
REMARK   16  A    between atoms: _48  and  _49
REMARK   17  A    between atoms: _48  and  _51
REMARK   18  A    between atoms: _51  and  _52
REMARK   19  A    between atoms: _57  and  _59
REMARK   20  A    between atoms: _59  and  _60
REMARK   21  A    between atoms: _63  and  _65
REMARK   22  A    between atoms: _65  and  _66
REMARK   23  A    between atoms: _65  and  _68
REMARK   24  A    between atoms: _68  and  _69
REMARK   25  A    between atoms: _74  and  _76
REMARK   26  A    between atoms: _76  and  _77
REMARK   27  A    between atoms: _76  and  _79
REMARK   28  A    between atoms: _79  and  _80
REMARK   29  A    between atoms: _80  and  _81
REMARK   30  A    between atoms: _84  and  _86
REMARK   31  A    between atoms: _86  and  _87
REMARK   32  A    between atoms: _86  and  _89
REMARK   33  A    between atoms: _89  and  _90
REMARK   34  A    between atoms: _93  and  _95
REMARK   35  A    between atoms: _95  and  _96
REMARK   36  A    between atoms: _95  and  _98
REMARK   37  A    between atoms: _98  and  _99
REMARK   38  A    between atoms: _99  and  _100
REMARK   39  A    between atoms: _105  and  _107
REMARK   40  A    between atoms: _107  and  _108
REMARK   41  A    between atoms: _107  and  _110
REMARK   42  A    between atoms: _110  and  _111
REMARK   43  A    between atoms: _117  and  _119
REMARK   44  A    between atoms: _123  and  _125
REMARK   45  A    between atoms: _130  and  _133
REMARK   46  A    between atoms: _133  and  _134
REMARK   47  A    between atoms: _142  and  _143
REMARK   48  A    between atoms: _151  and  _153
REMARK   49  A    between atoms: _153  and  _154
REMARK   50  A    between atoms: _153  and  _156
REMARK   51  A    between atoms: _156  and  _157
REMARK   52  A    between atoms: _157  and  _158
REMARK   53  A    between atoms: _161  and  _163
REMARK   54  A    between atoms: _163  and  _164
REMARK   55  A    between atoms: _163  and  _166
REMARK   56  A    between atoms: _166  and  _167
REMARK   57  A    between atoms: _172  and  _174
REMARK   58  A    between atoms: _174  and  _175
REMARK   59  A    between atoms: _174  and  _177
REMARK   60  A    between atoms: _177  and  _178
REMARK   61  A    between atoms: _178  and  _179
REMARK   62  A    between atoms: _182  and  _184
REMARK   63  A    between atoms: _184  and  _185
REMARK   64  A    between atoms: _184  and  _187
REMARK   65  A    between atoms: _187  and  _188
REMARK   66  A    between atoms: _191  and  _193
REMARK   67  A    between atoms: _193  and  _194
REMARK   68  A    between atoms: _193  and  _196
REMARK   69  A    between atoms: _196  and  _197
REMARK   70  A    between atoms: _198  and  ZN_411
REMARK   71  A    between atoms: _202  and  _204
REMARK   72  A    between atoms: _204  and  _205
REMARK   73  A    between atoms: _204  and  _207
REMARK   74  A    between atoms: _207  and  _208
REMARK   75  A    between atoms: _211  and  _213
REMARK   76  A    between atoms: _213  and  _214
REMARK   77  A    between atoms: _213  and  _216
REMARK   78  A    between atoms: _219  and  _221
REMARK   79  A    between atoms: _221  and  _222
REMARK   80  A    between atoms: _221  and  _224
REMARK   81  A    between atoms: _224  and  _225
REMARK   82  A    between atoms: _230  and  _232
REMARK   83  A    between atoms: _232  and  _233
REMARK   84  A    between atoms: _232  and  _235
REMARK   85  A    between atoms: _235  and  _236
REMARK   86  A    between atoms: _246  and  _248
REMARK   87  A    between atoms: _248  and  _249
REMARK   88  A    between atoms: _248  and  _251
REMARK   89  A    between atoms: _251  and  _252
REMARK   90  A    between atoms: _258  and  _260
REMARK   91  A    between atoms: _260  and  _261
REMARK   92  A    between atoms: _260  and  _263
REMARK   93  A    between atoms: _266  and  _268
REMARK   94  A    between atoms: _268  and  _269
REMARK   95  A    between atoms: _268  and  _271
REMARK   96  A    between atoms: _271  and  _272
REMARK   97  A    between atoms: _275  and  _277
REMARK   98  A    between atoms: _277  and  _278
REMARK   99  A    between atoms: _277  and  _280
REMARK  100  A    between atoms: _283  and  _285
REMARK  101  A    between atoms: _285  and  _286
REMARK  102  A    between atoms: _285  and  _288
REMARK  103  A    between atoms: _288  and  _289
REMARK  104  A    between atoms: _292  and  _294
REMARK  105  A    between atoms: _294  and  _295
REMARK  106  A    between atoms: _294  and  _297
REMARK  107  A    between atoms: _297  and  _298
REMARK  108  A    between atoms: _300  and  _302
REMARK  109  A    between atoms: _302  and  _303
REMARK  110  A    between atoms: _302  and  _305
REMARK  111  A    between atoms: _305  and  _306
REMARK  112  A    between atoms: _309  and  _311
REMARK  113  A    between atoms: _311  and  _312
REMARK  114  A    between atoms: _311  and  _314
REMARK  115  A    between atoms: _314  and  _315
REMARK  116  A    between atoms: _318  and  _320
REMARK  117  A    between atoms: _320  and  _321
REMARK  118  A    between atoms: _320  and  _323
REMARK  119  A    between atoms: _323  and  _324
REMARK  120  A    between atoms: _328  and  _329
REMARK  121  A    between atoms: _335  and  _336
REMARK  122  A    between atoms: _341  and  _343
REMARK  123  A    between atoms: _343  and  _344
REMARK  124  A    between atoms: _343  and  _346
REMARK  125  A    between atoms: _346  and  _347
REMARK  126  A    between atoms: _350  and  _352
REMARK  127  A    between atoms: _352  and  _353
REMARK  128  A    between atoms: _352  and  _355
REMARK  129  A    between atoms: _355  and  _356
REMARK  130  A    between atoms: _359  and  _361
REMARK  131  A    between atoms: _361  and  _362
REMARK  132  A    between atoms: _361  and  _364
REMARK  133  A    between atoms: _367  and  _369
REMARK  134  A    between atoms: _369  and  _370
REMARK  135  A    between atoms: _369  and  _372
REMARK  136  A    between atoms: _372  and  _373
REMARK  137  A    between atoms: _383  and  _385
REMARK  138  A    between atoms: _385  and  _386
REMARK  139  A    between atoms: _385  and  _388
REMARK  140  A    between atoms: _388  and  _389
REMARK  141  A    between atoms: _394  and  _396
REMARK  142  A    between atoms: _396  and  _397
REMARK  143  A    between atoms: _396  and  _399
REMARK  144  A    between atoms: _399  and  _400
REMARK  145  A    between atoms: _400  and  _401
REMARK  146  A    between atoms: _401  and  _402
REMARK                            x       y       z     vdW  Elec       q    Type
REMARK                         _______ _______ _______ _____ _____    ______ ____
ROOT
ATOM      1  CG  TRP A   1      -8.952   0.066  24.309  0.00  0.00    -0.002 A 
ATOM      2  CD1 TRP A   1      -7.731   0.647  24.503  0.00  0.00    +0.068 A 
ATOM      3  NE1 TRP A   1      -6.995   0.580  23.342  0.00  0.00    -0.352 N 
ATOM      4  HE1 TRP A   1      -6.032   0.953  23.216  0.00  0.00    +0.166 HD
ATOM      5  CE2 TRP A   1      -7.733  -0.057  22.378  0.00  0.00    +0.056 A 
ATOM      6  CZ2 TRP A   1      -7.413  -0.367  21.050  0.00  0.00    +0.017 A 
ATOM      7  CH2 TRP A   1      -8.365  -1.018  20.304  0.00  0.00    +0.001 A 
ATOM      8  CZ3 TRP A   1      -9.618  -1.362  20.846  0.00  0.00    +0.000 A 
ATOM      9  CE3 TRP A   1      -9.935  -1.054  22.167  0.00  0.00    +0.001 A 
ATOM     10  CD2 TRP A   1      -8.977  -0.390  22.953  0.00  0.00    +0.013 A 
ENDROOT
BRANCH   1  11
ATOM     11  CB  TRP A   1     -10.035  -0.069  25.283  0.00  0.00    +0.053 C 
BRANCH  11  12
ATOM     12  CA  TRP A   1     -11.058   1.050  25.142  0.00  0.00    +0.137 C 
BRANCH  12  13
ATOM     13  N   TRP A   1     -10.586   2.227  25.841  0.00  0.00    -0.239 NA
ATOM     14  H   TRP A   1      -9.936   2.118  26.646  0.00  0.00    +0.142 HD
ENDBRANCH  12  13
BRANCH  12  15
ATOM     15  C   TRP A   1     -12.418   0.582  25.643  0.00  0.00    +0.224 C 
ATOM     16  O   TRP A   1     -12.666   0.548  26.856  0.00  0.00    -0.287 OA
ENDBRANCH  12  15
ENDBRANCH  11  12
ENDBRANCH   1  11
TORSDOF 4
REMARK  Name = ../refined-set-2016/2h4n/2h4n_pocket.pdb
REMARK  146 active torsions:
REMARK  status: ('A' for Active; 'I' for Inactive)
REMARK    1  A    between atoms: _1  and  _3
REMARK    2  A    between atoms: _3  and  _4
REMARK    3  A    between atoms: _3  and  _6
REMARK    4  A    between atoms: _6  and  _7
REMARK    5  A    between atoms: _17  and  _19
REMARK    6  A    between atoms: _19  and  _20
REMARK    7  A    between atoms: _19  and  _22
REMARK    8  A    between atoms: _22  and  _23
REMARK    9  A    between atoms: _28  and  _29
REMARK   10  A    between atoms: _31  and  _33
REMARK   11  A    between atoms: _33  and  _34
REMARK   12  A    between atoms: _33  and  _36
REMARK   13  A    between atoms: _36  and  _37
REMARK   14  A    between atoms: _40  and  _41
REMARK   15  A    between atoms: _46  and  _48
REMARK   16  A    between atoms: _48  and  _49
REMARK   17  A    between atoms: _48  and  _51
REMARK   18  A    between atoms: _51  and  _52
REMARK   19  A    between atoms: _57  and  _59
REMARK   20  A    between atoms: _59  and  _60
REMARK   21  A    between atoms: _63  and  _65
REMARK   22  A    between atoms: _65  and  _66
REMARK   23  A    between atoms: _65  and  _68
REMARK   24  A    between atoms: _68  and  _69
REMARK   25  A    between atoms: _74  and  _76
REMARK   26  A    between atoms: _76  and  _77
REMARK   27  A    between atoms: _76  and  _79
REMARK   28  A    between atoms: _79  and  _80
REMARK   29  A    between atoms: _80  and  _81
REMARK   30  A    between atoms: _84  and  _86
REMARK   31  A    between atoms: _86  and  _87
REMARK   32  A    between atoms: _86  and  _89
REMARK   33  A    between atoms: _89  and  _90
REMARK   34  A    between atoms: _93  and  _95
REMARK   35  A    between atoms: _95  and  _96
REMARK   36  A    between atoms: _95  and  _98
REMARK   37  A    between atoms: _98  and  _99
REMARK   38  A    between atoms: _99  and  _100
REMARK   39  A    between atoms: _105  and  _107
REMARK   40  A    between atoms: _107  and  _108
REMARK   41  A    between atoms: _107  and  _110
REMARK   42  A    between atoms: _110  and  _111
REMARK   43  A    between atoms: _117  and  _119
REMARK   44  A    between atoms: _123  and  _125
REMARK   45  A    between atoms: _130  and  _133
REMARK   46  A    between atoms: _133  and  _134
REMARK   47  A    between atoms: _142  and  _143
REMARK   48  A    between atoms: _151  and  _153
REMARK   49  A    between atoms: _153  and  _154
REMARK   50  A    between atoms: _153  and  _156
REMARK   51  A    between atoms: _156  and  _157
REMARK   52  A    between atoms: _157  and  _158
REMARK   53  A    between atoms: _161  and  _163
REMARK   54  A    between atoms: _163  and  _164
REMARK   55  A    between atoms: _163  and  _166
REMARK   56  A    between atoms: _166  and  _167
REMARK   57  A    between atoms: _172  and  _174
REMARK   58  A    between atoms: _174  and  _175
REMARK   59  A    between atoms: _174  and  _177
REMARK   60  A    between atoms: _177  and  _178
REMARK   61  A    between atoms: _178  and  _179
REMARK   62  A    between atoms: _182  and  _184
REMARK   63  A    between atoms: _184  and  _185
REMARK   64  A    between atoms: _184  and  _187
REMARK   65  A    between atoms: _187  and  _188
REMARK   66  A    between atoms: _191  and  _193
REMARK   67  A    between atoms: _193  and  _194
REMARK   68  A    between atoms: _193  and  _196
REMARK   69  A    between atoms: _196  and  _197
REMARK   70  A    between atoms: _198  and  ZN_411
REMARK   71  A    between atoms: _202  and  _204
REMARK   72  A    between atoms: _204  and  _205
REMARK   73  A    between atoms: _204  and  _207
REMARK   74  A    between atoms: _207  and  _208
REMARK   75  A    between atoms: _211  and  _213
REMARK   76  A    between atoms: _213  and  _214
REMARK   77  A    between atoms: _213  and  _216
REMARK   78  A    between atoms: _219  and  _221
REMARK   79  A    between atoms: _221  and  _222
REMARK   80  A    between atoms: _221  and  _224
REMARK   81  A    between atoms: _224  and  _225
REMARK   82  A    between atoms: _230  and  _232
REMARK   83  A    between atoms: _232  and  _233
REMARK   84  A    between atoms: _232  and  _235
REMARK   85  A    between atoms: _235  and  _236
REMARK   86  A    between atoms: _246  and  _248
REMARK   87  A    between atoms: _248  and  _249
REMARK   88  A    between atoms: _248  and  _251
REMARK   89  A    between atoms: _251  and  _252
REMARK   90  A    between atoms: _258  and  _260
REMARK   91  A    between atoms: _260  and  _261
REMARK   92  A    between atoms: _260  and  _263
REMARK   93  A    between atoms: _266  and  _268
REMARK   94  A    between atoms: _268  and  _269
REMARK   95  A    between atoms: _268  and  _271
REMARK   96  A    between atoms: _271  and  _272
REMARK   97  A    between atoms: _275  and  _277
REMARK   98  A    between atoms: _277  and  _278
REMARK   99  A    between atoms: _277  and  _280
REMARK  100  A    between atoms: _283  and  _285
REMARK  101  A    between atoms: _285  and  _286
REMARK  102  A    between atoms: _285  and  _288
REMARK  103  A    between atoms: _288  and  _289
REMARK  104  A    between atoms: _292  and  _294
REMARK  105  A    between atoms: _294  and  _295
REMARK  106  A    between atoms: _294  and  _297
REMARK  107  A    between atoms: _297  and  _298
REMARK  108  A    between atoms: _300  and  _302
REMARK  109  A    between atoms: _302  and  _303
REMARK  110  A    between atoms: _302  and  _305
REMARK  111  A    between atoms: _305  and  _306
REMARK  112  A    between atoms: _309  and  _311
REMARK  113  A    between atoms: _311  and  _312
REMARK  114  A    between atoms: _311  and  _314
REMARK  115  A    between atoms: _314  and  _315
REMARK  116  A    between atoms: _318  and  _320
REMARK  117  A    between atoms: _320  and  _321
REMARK  118  A    between atoms: _320  and  _323
REMARK  119  A    between atoms: _323  and  _324
REMARK  120  A    between atoms: _328  and  _329
REMARK  121  A    between atoms: _335  and  _336
REMARK  122  A    between atoms: _341  and  _343
REMARK  123  A    between atoms: _343  and  _344
REMARK  124  A    between atoms: _343  and  _346
REMARK  125  A    between atoms: _346  and  _347
REMARK  126  A    between atoms: _350  and  _352
REMARK  127  A    between atoms: _352  and  _353
REMARK  128  A    between atoms: _352  and  _355
REMARK  129  A    between atoms: _355  and  _356
REMARK  130  A    between atoms: _359  and  _361
REMARK  131  A    between atoms: _361  and  _362
REMARK  132  A    between atoms: _361  and  _364
REMARK  133  A    between atoms: _367  and  _369
REMARK  134  A    between atoms: _369  and  _370
REMARK  135  A    between atoms: _369  and  _372
REMARK  136  A    between atoms: _372  and  _373
REMARK  137  A    between atoms: _383  and  _385
REMARK  138  A    between atoms: _385  and  _386
REMARK  139  A    between atoms: _385  and  _388
REMARK  140  A    between atoms: _388  and  _389
REMARK  141  A    between atoms: _394  and  _396
REMARK  142  A    between atoms: _396  and  _397
REMARK  143  A    between atoms: _396  and  _399
REMARK  144  A    between atoms: _399  and  _400
REMARK  145  A    between atoms: _400  and  _401
REMARK  146  A    between atoms: _401  and  _402
REMARK                            x       y       z     vdW  Elec       q    Type
REMARK                         _______ _______ _______ _____ _____    ______ ____
ROOT
ATOM      1  CB  ASN A   1      -1.964  -7.390  10.573  0.00  0.00    +0.000 C 
ENDROOT
BRANCH   1   2
ATOM      2  CG  ASN A   1      -3.452  -7.567  10.319  0.00  0.00    +0.000 C 
ATOM      3  OD1 ASN A   1      -4.118  -8.394  10.951  0.00  0.00    +0.000 OA
ATOM      4  ND2 ASN A   1      -3.984  -6.784   9.388  0.00  0.00    +0.000 N 
ATOM      5 HD21 ASN A   1      -4.998  -6.854   9.167  0.00  0.00    +0.000 HD
ATOM      6 HD22 ASN A   1      -3.387  -6.101   8.880  0.00  0.00    +0.000 HD
ENDBRANCH   1   2
BRANCH   1   7
ATOM      7  CA  ASN A   1      -1.447  -8.265  11.719  0.00  0.00    +0.000 C 
BRANCH   7   8
ATOM      8  N   ASN A   1      -1.812  -9.653  11.494  0.00  0.00    +0.000 NA
ATOM      9  H   ASN A   1      -2.732  -9.876  11.063  0.00  0.00    +0.000 HD
ENDBRANCH   7   8
BRANCH   7  10
ATOM     10  C   ASN A   1      -2.034  -7.830  13.069  0.00  0.00    +0.000 C 
ATOM     11  O   ASN A   1      -2.732  -6.816  13.172  0.00  0.00    +0.000 OA
ENDBRANCH   7  10
ENDBRANCH   1   7
TORSDOF 4
REMARK  Name = ../refined-set-2016/2h4n/2h4n_pocket.pdb
REMARK  146 active torsions:
REMARK  status: ('A' for Active; 'I' for Inactive)
REMARK    1  A    between atoms: _1  and  _3
REMARK    2  A    between atoms: _3  and  _4
REMARK    3  A    between atoms: _3  and  _6
REMARK    4  A    between atoms: _6  and  _7
REMARK    5  A    between atoms: _17  and  _19
REMARK    6  A    between atoms: _19  and  _20
REMARK    7  A    between atoms: _19  and  _22
REMARK    8  A    between atoms: _22  and  _23
REMARK    9  A    between atoms: _28  and  _29
REMARK   10  A    between atoms: _31  and  _33
REMARK   11  A    between atoms: _33  and  _34
REMARK   12  A    between atoms: _33  and  _36
REMARK   13  A    between atoms: _36  and  _37
REMARK   14  A    between atoms: _40  and  _41
REMARK   15  A    between atoms: _46  and  _48
REMARK   16  A    between atoms: _48  and  _49
REMARK   17  A    between atoms: _48  and  _51
REMARK   18  A    between atoms: _51  and  _52
REMARK   19  A    between atoms: _57  and  _59
REMARK   20  A    between atoms: _59  and  _60
REMARK   21  A    between atoms: _63  and  _65
REMARK   22  A    between atoms: _65  and  _66
REMARK   23  A    between atoms: _65  and  _68
REMARK   24  A    between atoms: _68  and  _69
REMARK   25  A    between atoms: _74  and  _76
REMARK   26  A    between atoms: _76  and  _77
REMARK   27  A    between atoms: _76  and  _79
REMARK   28  A    between atoms: _79  and  _80
REMARK   29  A    between atoms: _80  and  _81
REMARK   30  A    between atoms: _84  and  _86
REMARK   31  A    between atoms: _86  and  _87
REMARK   32  A    between atoms: _86  and  _89
REMARK   33  A    between atoms: _89  and  _90
REMARK   34  A    between atoms: _93  and  _95
REMARK   35  A    between atoms: _95  and  _96
REMARK   36  A    between atoms: _95  and  _98
REMARK   37  A    between atoms: _98  and  _99
REMARK   38  A    between atoms: _99  and  _100
REMARK   39  A    between atoms: _105  and  _107
REMARK   40  A    between atoms: _107  and  _108
REMARK   41  A    between atoms: _107  and  _110
REMARK   42  A    between atoms: _110  and  _111
REMARK   43  A    between atoms: _117  and  _119
REMARK   44  A    between atoms: _123  and  _125
REMARK   45  A    between atoms: _130  and  _133
REMARK   46  A    between atoms: _133  and  _134
REMARK   47  A    between atoms: _142  and  _143
REMARK   48  A    between atoms: _151  and  _153
REMARK   49  A    between atoms: _153  and  _154
REMARK   50  A    between atoms: _153  and  _156
REMARK   51  A    between atoms: _156  and  _157
REMARK   52  A    between atoms: _157  and  _158
REMARK   53  A    between atoms: _161  and  _163
REMARK   54  A    between atoms: _163  and  _164
REMARK   55  A    between atoms: _163  and  _166
REMARK   56  A    between atoms: _166  and  _167
REMARK   57  A    between atoms: _172  and  _174
REMARK   58  A    between atoms: _174  and  _175
REMARK   59  A    between atoms: _174  and  _177
REMARK   60  A    between atoms: _177  and  _178
REMARK   61  A    between atoms: _178  and  _179
REMARK   62  A    between atoms: _182  and  _184
REMARK   63  A    between atoms: _184  and  _185
REMARK   64  A    between atoms: _184  and  _187
REMARK   65  A    between atoms: _187  and  _188
REMARK   66  A    between atoms: _191  and  _193
REMARK   67  A    between atoms: _193  and  _194
REMARK   68  A    between atoms: _193  and  _196
REMARK   69  A    between atoms: _196  and  _197
REMARK   70  A    between atoms: _198  and  ZN_411
REMARK   71  A    between atoms: _202  and  _204
REMARK   72  A    between atoms: _204  and  _205
REMARK   73  A    between atoms: _204  and  _207
REMARK   74  A    between atoms: _207  and  _208
REMARK   75  A    between atoms: _211  and  _213
REMARK   76  A    between atoms: _213  and  _214
REMARK   77  A    between atoms: _213  and  _216
REMARK   78  A    between atoms: _219  and  _221
REMARK   79  A    between atoms: _221  and  _222
REMARK   80  A    between atoms: _221  and  _224
REMARK   81  A    between atoms: _224  and  _225
REMARK   82  A    between atoms: _230  and  _232
REMARK   83  A    between atoms: _232  and  _233
REMARK   84  A    between atoms: _232  and  _235
REMARK   85  A    between atoms: _235  and  _236
REMARK   86  A    between atoms: _246  and  _248
REMARK   87  A    between atoms: _248  and  _249
REMARK   88  A    between atoms: _248  and  _251
REMARK   89  A    between atoms: _251  and  _252
REMARK   90  A    between atoms: _258  and  _260
REMARK   91  A    between atoms: _260  and  _261
REMARK   92  A    between atoms: _260  and  _263
REMARK   93  A    between atoms: _266  and  _268
REMARK   94  A    between atoms: _268  and  _269
REMARK   95  A    between atoms: _268  and  _271
REMARK   96  A    between atoms: _271  and  _272
REMARK   97  A    between atoms: _275  and  _277
REMARK   98  A    between atoms: _277  and  _278
REMARK   99  A    between atoms: _277  and  _280
REMARK  100  A    between atoms: _283  and  _285
REMARK  101  A    between atoms: _285  and  _286
REMARK  102  A    between atoms: _285  and  _288
REMARK  103  A    between atoms: _288  and  _289
REMARK  104  A    between atoms: _292  and  _294
REMARK  105  A    between atoms: _294  and  _295
REMARK  106  A    between atoms: _294  and  _297
REMARK  107  A    between atoms: _297  and  _298
REMARK  108  A    between atoms: _300  and  _302
REMARK  109  A    between atoms: _302  and  _303
REMARK  110  A    between atoms: _302  and  _305
REMARK  111  A    between atoms: _305  and  _306
REMARK  112  A    between atoms: _309  and  _311
REMARK  113  A    between atoms: _311  and  _312
REMARK  114  A    between atoms: _311  and  _314
REMARK  115  A    between atoms: _314  and  _315
REMARK  116  A    between atoms: _318  and  _320
REMARK  117  A    between atoms: _320  and  _321
REMARK  118  A    between atoms: _320  and  _323
REMARK  119  A    between atoms: _323  and  _324
REMARK  120  A    between atoms: _328  and  _329
REMARK  121  A    between atoms: _335  and  _336
REMARK  122  A    between atoms: _341  and  _343
REMARK  123  A    between atoms: _343  and  _344
REMARK  124  A    between atoms: _343  and  _346
REMARK  125  A    between atoms: _346  and  _347
REMARK  126  A    between atoms: _350  and  _352
REMARK  127  A    between atoms: _352  and  _353
REMARK  128  A    between atoms: _352  and  _355
REMARK  129  A    between atoms: _355  and  _356
REMARK  130  A    between atoms: _359  and  _361
REMARK  131  A    between atoms: _361  and  _362
REMARK  132  A    between atoms: _361  and  _364
REMARK  133  A    between atoms: _367  and  _369
REMARK  134  A    between atoms: _369  and  _370
REMARK  135  A    between atoms: _369  and  _372
REMARK  136  A    between atoms: _372  and  _373
REMARK  137  A    between atoms: _383  and  _385
REMARK  138  A    between atoms: _385  and  _386
REMARK  139  A    between atoms: _385  and  _388
REMARK  140  A    between atoms: _388  and  _389
REMARK  141  A    between atoms: _394  and  _396
REMARK  142  A    between atoms: _396  and  _397
REMARK  143  A    between atoms: _396  and  _399
REMARK  144  A    between atoms: _399  and  _400
REMARK  145  A    between atoms: _400  and  _401
REMARK  146  A    between atoms: _401  and  _402
REMARK                            x       y       z     vdW  Elec       q    Type
REMARK                         _______ _______ _______ _____ _____    ______ ____
ROOT
ATOM      1  NE  ARG A   1       2.081  -3.794  21.199  0.00  0.00    +0.330 N 
ATOM      2  CZ  ARG A   1       2.221  -2.801  22.072  0.00  0.00    +0.000 C 
ATOM      3  NH2 ARG A   1       3.423  -2.551  22.576  0.00  0.00    +0.330 N 
ATOM      4 HH21 ARG A   1       3.550  -1.778  23.260  0.00  0.00    +0.000 HD
ATOM      5 HH22 ARG A   1       4.238  -3.128  22.287  0.00  0.00    +0.000 HD
ATOM      6  NH1 ARG A   1       1.185  -2.028  22.400  0.00  0.00    +0.330 N 
ATOM      7 HH11 ARG A   1       1.309  -1.255  23.084  0.00  0.00    +0.000 HD
ATOM      8 HH12 ARG A   1       0.253  -2.198  21.971  0.00  0.00    +0.000 HD
ATOM      9  HE  ARG A   1       2.922  -4.368  20.989  0.00  0.00    +0.000 HD
ENDROOT
BRANCH   1  10
ATOM     10  CD  ARG A   1       0.843  -4.142  20.513  0.00  0.00    +0.000 C 
BRANCH  10  11
ATOM     11  CG  ARG A   1       0.950  -5.540  19.946  0.00  0.00    +0.000 C 
BRANCH  11  12
ATOM     12  CB  ARG A   1      -0.133  -5.816  18.919  0.00  0.00    +0.000 C 
BRANCH  12  13
ATOM     13  CA  ARG A   1      -0.221  -7.286  18.485  0.00  0.00    +0.000 C 
BRANCH  13  14
ATOM     14  N   ARG A   1      -1.237  -7.440  17.454  0.00  0.00    +0.000 NA
ATOM     15  H   ARG A   1      -2.104  -6.869  17.513  0.00  0.00    +0.000 HD
ENDBRANCH  13  14
BRANCH  13  16
ATOM     16  C   ARG A   1      -0.637  -8.156  19.671  0.00  0.00    +0.000 C 
ATOM     17  O   ARG A   1      -1.819  -8.232  20.003  0.00  0.00    +0.000 OA
ENDBRANCH  13  16
ENDBRANCH  12  13
ENDBRANCH  11  12
ENDBRANCH  10  11
ENDBRANCH   1  10
TORSDOF 6
REMARK  Name = ../refined-set-2016/2h4n/2h4n_pocket.pdb
REMARK  146 active torsions:
REMARK  status: ('A' for Active; 'I' for Inactive)
REMARK    1  A    between atoms: _1  and  _3
REMARK    2  A    between atoms: _3  and  _4
REMARK    3  A    between atoms: _3  and  _6
REMARK    4  A    between atoms: _6  and  _7
REMARK    5  A    between atoms: _17  and  _19
REMARK    6  A    between atoms: _19  and  _20
REMARK    7  A    between atoms: _19  and  _22
REMARK    8  A    between atoms: _22  and  _23
REMARK    9  A    between atoms: _28  and  _29
REMARK   10  A    between atoms: _31  and  _33
REMARK   11  A    between atoms: _33  and  _34
REMARK   12  A    between atoms: _33  and  _36
REMARK   13  A    between atoms: _36  and  _37
REMARK   14  A    between atoms: _40  and  _41
REMARK   15  A    between atoms: _46  and  _48
REMARK   16  A    between atoms: _48  and  _49
REMARK   17  A    between atoms: _48  and  _51
REMARK   18  A    between atoms: _51  and  _52
REMARK   19  A    between atoms: _57  and  _59
REMARK   20  A    between atoms: _59  and  _60
REMARK   21  A    between atoms: _63  and  _65
REMARK   22  A    between atoms: _65  and  _66
REMARK   23  A    between atoms: _65  and  _68
REMARK   24  A    between atoms: _68  and  _69
REMARK   25  A    between atoms: _74  and  _76
REMARK   26  A    between atoms: _76  and  _77
REMARK   27  A    between atoms: _76  and  _79
REMARK   28  A    between atoms: _79  and  _80
REMARK   29  A    between atoms: _80  and  _81
REMARK   30  A    between atoms: _84  and  _86
REMARK   31  A    between atoms: _86  and  _87
REMARK   32  A    between atoms: _86  and  _89
REMARK   33  A    between atoms: _89  and  _90
REMARK   34  A    between atoms: _93  and  _95
REMARK   35  A    between atoms: _95  and  _96
REMARK   36  A    between atoms: _95  and  _98
REMARK   37  A    between atoms: _98  and  _99
REMARK   38  A    between atoms: _99  and  _100
REMARK   39  A    between atoms: _105  and  _107
REMARK   40  A    between atoms: _107  and  _108
REMARK   41  A    between atoms: _107  and  _110
REMARK   42  A    between atoms: _110  and  _111
REMARK   43  A    between atoms: _117  and  _119
REMARK   44  A    between atoms: _123  and  _125
REMARK   45  A    between atoms: _130  and  _133
REMARK   46  A    between atoms: _133  and  _134
REMARK   47  A    between atoms: _142  and  _143
REMARK   48  A    between atoms: _151  and  _153
REMARK   49  A    between atoms: _153  and  _154
REMARK   50  A    between atoms: _153  and  _156
REMARK   51  A    between atoms: _156  and  _157
REMARK   52  A    between atoms: _157  and  _158
REMARK   53  A    between atoms: _161  and  _163
REMARK   54  A    between atoms: _163  and  _164
REMARK   55  A    between atoms: _163  and  _166
REMARK   56  A    between atoms: _166  and  _167
REMARK   57  A    between atoms: _172  and  _174
REMARK   58  A    between atoms: _174  and  _175
REMARK   59  A    between atoms: _174  and  _177
REMARK   60  A    between atoms: _177  and  _178
REMARK   61  A    between atoms: _178  and  _179
REMARK   62  A    between atoms: _182  and  _184
REMARK   63  A    between atoms: _184  and  _185
REMARK   64  A    between atoms: _184  and  _187
REMARK   65  A    between atoms: _187  and  _188
REMARK   66  A    between atoms: _191  and  _193
REMARK   67  A    between atoms: _193  and  _194
REMARK   68  A    between atoms: _193  and  _196
REMARK   69  A    between atoms: _196  and  _197
REMARK   70  A    between atoms: _198  and  ZN_411
REMARK   71  A    between atoms: _202  and  _204
REMARK   72  A    between atoms: _204  and  _205
REMARK   73  A    between atoms: _204  and  _207
REMARK   74  A    between atoms: _207  and  _208
REMARK   75  A    between atoms: _211  and  _213
REMARK   76  A    between atoms: _213  and  _214
REMARK   77  A    between atoms: _213  and  _216
REMARK   78  A    between atoms: _219  and  _221
REMARK   79  A    between atoms: _221  and  _222
REMARK   80  A    between atoms: _221  and  _224
REMARK   81  A    between atoms: _224  and  _225
REMARK   82  A    between atoms: _230  and  _232
REMARK   83  A    between atoms: _232  and  _233
REMARK   84  A    between atoms: _232  and  _235
REMARK   85  A    between atoms: _235  and  _236
REMARK   86  A    between atoms: _246  and  _248
REMARK   87  A    between atoms: _248  and  _249
REMARK   88  A    between atoms: _248  and  _251
REMARK   89  A    between atoms: _251  and  _252
REMARK   90  A    between atoms: _258  and  _260
REMARK   91  A    between atoms: _260  and  _261
REMARK   92  A    between atoms: _260  and  _263
REMARK   93  A    between atoms: _266  and  _268
REMARK   94  A    between atoms: _268  and  _269
REMARK   95  A    between atoms: _268  and  _271
REMARK   96  A    between atoms: _271  and  _272
REMARK   97  A    between atoms: _275  and  _277
REMARK   98  A    between atoms: _277  and  _278
REMARK   99  A    between atoms: _277  and  _280
REMARK  100  A    between atoms: _283  and  _285
REMARK  101  A    between atoms: _285  and  _286
REMARK  102  A    between atoms: _285  and  _288
REMARK  103  A    between atoms: _288  and  _289
REMARK  104  A    between atoms: _292  and  _294
REMARK  105  A    between atoms: _294  and  _295
REMARK  106  A    between atoms: _294  and  _297
REMARK  107  A    between atoms: _297  and  _298
REMARK  108  A    between atoms: _300  and  _302
REMARK  109  A    between atoms: _302  and  _303
REMARK  110  A    between atoms: _302  and  _305
REMARK  111  A    between atoms: _305  and  _306
REMARK  112  A    between atoms: _309  and  _311
REMARK  113  A    between atoms: _311  and  _312
REMARK  114  A    between atoms: _311  and  _314
REMARK  115  A    between atoms: _314  and  _315
REMARK  116  A    between atoms: _318  and  _320
REMARK  117  A    between atoms: _320  and  _321
REMARK  118  A    between atoms: _320  and  _323
REMARK  119  A    between atoms: _323  and  _324
REMARK  120  A    between atoms: _328  and  _329
REMARK  121  A    between atoms: _335  and  _336
REMARK  122  A    between atoms: _341  and  _343
REMARK  123  A    between atoms: _343  and  _344
REMARK  124  A    between atoms: _343  and  _346
REMARK  125  A    between atoms: _346  and  _347
REMARK  126  A    between atoms: _350  and  _352
REMARK  127  A    between atoms: _352  and  _353
REMARK  128  A    between atoms: _352  and  _355
REMARK  129  A    between atoms: _355  and  _356
REMARK  130  A    between atoms: _359  and  _361
REMARK  131  A    between atoms: _361  and  _362
REMARK  132  A    between atoms: _361  and  _364
REMARK  133  A    between atoms: _367  and  _369
REMARK  134  A    between atoms: _369  and  _370
REMARK  135  A    between atoms: _369  and  _372
REMARK  136  A    between atoms: _372  and  _373
REMARK  137  A    between atoms: _383  and  _385
REMARK  138  A    between atoms: _385  and  _386
REMARK  139  A    between atoms: _385  and  _388
REMARK  140  A    between atoms: _388  and  _389
REMARK  141  A    between atoms: _394  and  _396
REMARK  142  A    between atoms: _396  and  _397
REMARK  143  A    between atoms: _396  and  _399
REMARK  144  A    between atoms: _399  and  _400
REMARK  145  A    between atoms: _400  and  _401
REMARK  146  A    between atoms: _401  and  _402
REMARK                            x       y       z     vdW  Elec       q    Type
REMARK                         _______ _______ _______ _____ _____    ______ ____
ROOT
ATOM      1  O   HOH     1      -2.625  -3.122  11.612  0.00  0.00    +0.000 OA
ENDROOT
TORSDOF 0
REMARK  Name = ../refined-set-2016/2h4n/2h4n_pocket.pdb
REMARK  146 active torsions:
REMARK  status: ('A' for Active; 'I' for Inactive)
REMARK    1  A    between atoms: _1  and  _3
REMARK    2  A    between atoms: _3  and  _4
REMARK    3  A    between atoms: _3  and  _6
REMARK    4  A    between atoms: _6  and  _7
REMARK    5  A    between atoms: _17  and  _19
REMARK    6  A    between atoms: _19  and  _20
REMARK    7  A    between atoms: _19  and  _22
REMARK    8  A    between atoms: _22  and  _23
REMARK    9  A    between atoms: _28  and  _29
REMARK   10  A    between atoms: _31  and  _33
REMARK   11  A    between atoms: _33  and  _34
REMARK   12  A    between atoms: _33  and  _36
REMARK   13  A    between atoms: _36  and  _37
REMARK   14  A    between atoms: _40  and  _41
REMARK   15  A    between atoms: _46  and  _48
REMARK   16  A    between atoms: _48  and  _49
REMARK   17  A    between atoms: _48  and  _51
REMARK   18  A    between atoms: _51  and  _52
REMARK   19  A    between atoms: _57  and  _59
REMARK   20  A    between atoms: _59  and  _60
REMARK   21  A    between atoms: _63  and  _65
REMARK   22  A    between atoms: _65  and  _66
REMARK   23  A    between atoms: _65  and  _68
REMARK   24  A    between atoms: _68  and  _69
REMARK   25  A    between atoms: _74  and  _76
REMARK   26  A    between atoms: _76  and  _77
REMARK   27  A    between atoms: _76  and  _79
REMARK   28  A    between atoms: _79  and  _80
REMARK   29  A    between atoms: _80  and  _81
REMARK   30  A    between atoms: _84  and  _86
REMARK   31  A    between atoms: _86  and  _87
REMARK   32  A    between atoms: _86  and  _89
REMARK   33  A    between atoms: _89  and  _90
REMARK   34  A    between atoms: _93  and  _95
REMARK   35  A    between atoms: _95  and  _96
REMARK   36  A    between atoms: _95  and  _98
REMARK   37  A    between atoms: _98  and  _99
REMARK   38  A    between atoms: _99  and  _100
REMARK   39  A    between atoms: _105  and  _107
REMARK   40  A    between atoms: _107  and  _108
REMARK   41  A    between atoms: _107  and  _110
REMARK   42  A    between atoms: _110  and  _111
REMARK   43  A    between atoms: _117  and  _119
REMARK   44  A    between atoms: _123  and  _125
REMARK   45  A    between atoms: _130  and  _133
REMARK   46  A    between atoms: _133  and  _134
REMARK   47  A    between atoms: _142  and  _143
REMARK   48  A    between atoms: _151  and  _153
REMARK   49  A    between atoms: _153  and  _154
REMARK   50  A    between atoms: _153  and  _156
REMARK   51  A    between atoms: _156  and  _157
REMARK   52  A    between atoms: _157  and  _158
REMARK   53  A    between atoms: _161  and  _163
REMARK   54  A    between atoms: _163  and  _164
REMARK   55  A    between atoms: _163  and  _166
REMARK   56  A    between atoms: _166  and  _167
REMARK   57  A    between atoms: _172  and  _174
REMARK   58  A    between atoms: _174  and  _175
REMARK   59  A    between atoms: _174  and  _177
REMARK   60  A    between atoms: _177  and  _178
REMARK   61  A    between atoms: _178  and  _179
REMARK   62  A    between atoms: _182  and  _184
REMARK   63  A    between atoms: _184  and  _185
REMARK   64  A    between atoms: _184  and  _187
REMARK   65  A    between atoms: _187  and  _188
REMARK   66  A    between atoms: _191  and  _193
REMARK   67  A    between atoms: _193  and  _194
REMARK   68  A    between atoms: _193  and  _196
REMARK   69  A    between atoms: _196  and  _197
REMARK   70  A    between atoms: _198  and  ZN_411
REMARK   71  A    between atoms: _202  and  _204
REMARK   72  A    between atoms: _204  and  _205
REMARK   73  A    between atoms: _204  and  _207
REMARK   74  A    between atoms: _207  and  _208
REMARK   75  A    between atoms: _211  and  _213
REMARK   76  A    between atoms: _213  and  _214
REMARK   77  A    between atoms: _213  and  _216
REMARK   78  A    between atoms: _219  and  _221
REMARK   79  A    between atoms: _221  and  _222
REMARK   80  A    between atoms: _221  and  _224
REMARK   81  A    between atoms: _224  and  _225
REMARK   82  A    between atoms: _230  and  _232
REMARK   83  A    between atoms: _232  and  _233
REMARK   84  A    between atoms: _232  and  _235
REMARK   85  A    between atoms: _235  and  _236
REMARK   86  A    between atoms: _246  and  _248
REMARK   87  A    between atoms: _248  and  _249
REMARK   88  A    between atoms: _248  and  _251
REMARK   89  A    between atoms: _251  and  _252
REMARK   90  A    between atoms: _258  and  _260
REMARK   91  A    between atoms: _260  and  _261
REMARK   92  A    between atoms: _260  and  _263
REMARK   93  A    between atoms: _266  and  _268
REMARK   94  A    between atoms: _268  and  _269
REMARK   95  A    between atoms: _268  and  _271
REMARK   96  A    between atoms: _271  and  _272
REMARK   97  A    between atoms: _275  and  _277
REMARK   98  A    between atoms: _277  and  _278
REMARK   99  A    between atoms: _277  and  _280
REMARK  100  A    between atoms: _283  and  _285
REMARK  101  A    between atoms: _285  and  _286
REMARK  102  A    between atoms: _285  and  _288
REMARK  103  A    between atoms: _288  and  _289
REMARK  104  A    between atoms: _292  and  _294
REMARK  105  A    between atoms: _294  and  _295
REMARK  106  A    between atoms: _294  and  _297
REMARK  107  A    between atoms: _297  and  _298
REMARK  108  A    between atoms: _300  and  _302
REMARK  109  A    between atoms: _302  and  _303
REMARK  110  A    between atoms: _302  and  _305
REMARK  111  A    between atoms: _305  and  _306
REMARK  112  A    between atoms: _309  and  _311
REMARK  113  A    between atoms: _311  and  _312
REMARK  114  A    between atoms: _311  and  _314
REMARK  115  A    between atoms: _314  and  _315
REMARK  116  A    between atoms: _318  and  _320
REMARK  117  A    between atoms: _320  and  _321
REMARK  118  A    between atoms: _320  and  _323
REMARK  119  A    between atoms: _323  and  _324
REMARK  120  A    between atoms: _328  and  _329
REMARK  121  A    between atoms: _335  and  _336
REMARK  122  A    between atoms: _341  and  _343
REMARK  123  A    between atoms: _343  and  _344
REMARK  124  A    between atoms: _343  and  _346
REMARK  125  A    between atoms: _346  and  _347
REMARK  126  A    between atoms: _350  and  _352
REMARK  127  A    between atoms: _352  and  _353
REMARK  128  A    between atoms: _352  and  _355
REMARK  129  A    between atoms: _355  and  _356
REMARK  130  A    between atoms: _359  and  _361
REMARK  131  A    between atoms: _361  and  _362
REMARK  132  A    between atoms: _361  and  _364
REMARK  133  A    between atoms: _367  and  _369
REMARK  134  A    between atoms: _369  and  _370
REMARK  135  A    between atoms: _369  and  _372
REMARK  136  A    between atoms: _372  and  _373
REMARK  137  A    between atoms: _383  and  _385
REMARK  138  A    between atoms: _385  and  _386
REMARK  139  A    between atoms: _385  and  _388
REMARK  140  A    between atoms: _388  and  _389
REMARK  141  A    between atoms: _394  and  _396
REMARK  142  A    between atoms: _396  and  _397
REMARK  143  A    between atoms: _396  and  _399
REMARK  144  A    between atoms: _399  and  _400
REMARK  145  A    between atoms: _400  and  _401
REMARK  146  A    between atoms: _401  and  _402
REMARK                            x       y       z     vdW  Elec       q    Type
REMARK                         _______ _______ _______ _____ _____    ______ ____
ROOT
ATOM      1  O   HOH     1      -1.389  -4.134  15.813  0.00  0.00    +0.000 OA
ENDROOT
TORSDOF 0
