REMARK  Name = ../refined-set-2016/4jpx/4jpx_pocket.pdb
REMARK  125 active torsions:
REMARK  status: ('A' for Active; 'I' for Inactive)
REMARK    1  A    between atoms: _1  and  _3
REMARK    2  A    between atoms: _3  and  _4
REMARK    3  A    between atoms: _3  and  _6
REMARK    4  A    between atoms: _6  and  _7
REMARK    5  A    between atoms: _13  and  _15
REMARK    6  A    between atoms: _15  and  _16
REMARK    7  A    between atoms: _15  and  _18
REMARK    8  A    between atoms: _18  and  _19
REMARK    9  A    between atoms: _22  and  _24
REMARK   10  A    between atoms: _24  and  _25
REMARK   11  A    between atoms: _24  and  _27
REMARK   12  A    between atoms: _27  and  _28
REMARK   13  A    between atoms: _33  and  _34
REMARK   14  A    between atoms: _36  and  _38
REMARK   15  A    between atoms: _38  and  _39
REMARK   16  A    between atoms: _38  and  _41
REMARK   17  A    between atoms: _41  and  _42
REMARK   18  A    between atoms: _45  and  _47
REMARK   19  A    between atoms: _47  and  _48
REMARK   20  A    between atoms: _47  and  _50
REMARK   21  A    between atoms: _50  and  _51
REMARK   22  A    between atoms: _51  and  _52
REMARK   23  A    between atoms: _55  and  _57
REMARK   24  A    between atoms: _57  and  _58
REMARK   25  A    between atoms: _61  and  _63
REMARK   26  A    between atoms: _63  and  _64
REMARK   27  A    between atoms: _63  and  _66
REMARK   28  A    between atoms: _66  and  _67
REMARK   29  A    between atoms: _72  and  _73
REMARK   30  A    between atoms: _75  and  _77
REMARK   31  A    between atoms: _77  and  _78
REMARK   32  A    between atoms: _80  and  _82
REMARK   33  A    between atoms: _82  and  _83
REMARK   34  A    between atoms: _82  and  _85
REMARK   35  A    between atoms: _85  and  _86
REMARK   36  A    between atoms: _86  and  _87
REMARK   37  A    between atoms: _87  and  _88
REMARK   38  A    between atoms: _88  and  _89
REMARK   39  A    between atoms: _93  and  _95
REMARK   40  A    between atoms: _95  and  _96
REMARK   41  A    between atoms: _98  and  _100
REMARK   42  A    between atoms: _100  and  _101
REMARK   43  A    between atoms: _103  and  _105
REMARK   44  A    between atoms: _105  and  _106
REMARK   45  A    between atoms: _105  and  _108
REMARK   46  A    between atoms: _111  and  _113
REMARK   47  A    between atoms: _113  and  _114
REMARK   48  A    between atoms: _113  and  _116
REMARK   49  A    between atoms: _116  and  _117
REMARK   50  A    between atoms: _117  and  _118
REMARK   51  A    between atoms: _118  and  _119
REMARK   52  A    between atoms: _119  and  _120
REMARK   53  A    between atoms: _124  and  _126
REMARK   54  A    between atoms: _126  and  _127
REMARK   55  A    between atoms: _130  and  _132
REMARK   56  A    between atoms: _132  and  _133
REMARK   57  A    between atoms: _132  and  _135
REMARK   58  A    between atoms: _135  and  _136
REMARK   59  A    between atoms: _139  and  _141
REMARK   60  A    between atoms: _141  and  _142
REMARK   61  A    between atoms: _141  and  _144
REMARK   62  A    between atoms: _144  and  _145
REMARK   63  A    between atoms: _148  and  _150
REMARK   64  A    between atoms: _150  and  _151
REMARK   65  A    between atoms: _150  and  _153
REMARK   66  A    between atoms: _153  and  _154
REMARK   67  A    between atoms: _157  and  _159
REMARK   68  A    between atoms: _159  and  _160
REMARK   69  A    between atoms: _159  and  _162
REMARK   70  A    between atoms: _162  and  _163
REMARK   71  A    between atoms: _168  and  _169
REMARK   72  A    between atoms: _171  and  _173
REMARK   73  A    between atoms: _173  and  _174
REMARK   74  A    between atoms: _173  and  _176
REMARK   75  A    between atoms: _176  and  _177
REMARK   76  A    between atoms: _180  and  _182
REMARK   77  A    between atoms: _182  and  _183
REMARK   78  A    between atoms: _182  and  _185
REMARK   79  A    between atoms: _185  and  _186
REMARK   80  A    between atoms: _189  and  _191
REMARK   81  A    between atoms: _191  and  _192
REMARK   82  A    between atoms: _191  and  _194
REMARK   83  A    between atoms: _194  and  _195
REMARK   84  A    between atoms: _195  and  _196
REMARK   85  A    between atoms: _198  and  _200
REMARK   86  A    between atoms: _200  and  _201
REMARK   87  A    between atoms: _200  and  _203
REMARK   88  A    between atoms: _203  and  _204
REMARK   89  A    between atoms: _207  and  _209
REMARK   90  A    between atoms: _209  and  _210
REMARK   91  A    between atoms: _209  and  _212
REMARK   92  A    between atoms: _212  and  _213
REMARK   93  A    between atoms: _219  and  _221
REMARK   94  A    between atoms: _221  and  _222
REMARK   95  A    between atoms: _221  and  _224
REMARK   96  A    between atoms: _224  and  _225
REMARK   97  A    between atoms: _228  and  _230
REMARK   98  A    between atoms: _230  and  _231
REMARK   99  A    between atoms: _234  and  _236
REMARK  100  A    between atoms: _236  and  _237
REMARK  101  A    between atoms: _236  and  _239
REMARK  102  A    between atoms: _239  and  _240
REMARK  103  A    between atoms: _243  and  _245
REMARK  104  A    between atoms: _245  and  _246
REMARK  105  A    between atoms: _250  and  _251
REMARK  106  A    between atoms: _256  and  _258
REMARK  107  A    between atoms: _258  and  _259
REMARK  108  A    between atoms: _258  and  _261
REMARK  109  A    between atoms: _261  and  _262
REMARK  110  A    between atoms: _265  and  _267
REMARK  111  A    between atoms: _267  and  _268
REMARK  112  A    between atoms: _267  and  _270
REMARK  113  A    between atoms: _270  and  _271
REMARK  114  A    between atoms: _277  and  _279
REMARK  115  A    between atoms: _279  and  _280
REMARK  116  A    between atoms: _284  and  _285
REMARK  117  A    between atoms: _290  and  _292
REMARK  118  A    between atoms: _292  and  _293
REMARK  119  A    between atoms: _292  and  _295
REMARK  120  A    between atoms: _295  and  _296
REMARK  121  A    between atoms: _299  and  _301
REMARK  122  A    between atoms: _301  and  _302
REMARK  123  A    between atoms: _301  and  _304
REMARK  124  A    between atoms: _304  and  _305
REMARK  125  A    between atoms: _310  and  _311
REMARK                            x       y       z     vdW  Elec       q    Type
REMARK                         _______ _______ _______ _____ _____    ______ ____
ROOT
ATOM      1  CB  PHE A   1      10.477  -8.650  -5.242  0.00  0.00    +0.051 C 
ENDROOT
BRANCH   1   2
ATOM      2  CG  PHE A   1      10.319  -7.285  -5.842  0.00  0.00    -0.020 A 
ATOM      3  CD2 PHE A   1      11.076  -6.220  -5.393  0.00  0.00    -0.004 A 
ATOM      4  CE2 PHE A   1      10.936  -4.969  -5.954  0.00  0.00    -0.000 A 
ATOM      5  CZ  PHE A   1      10.028  -4.762  -6.967  0.00  0.00    -0.000 A 
ATOM      6  CE1 PHE A   1       9.268  -5.816  -7.429  0.00  0.00    -0.000 A 
ATOM      7  CD1 PHE A   1       9.415  -7.070  -6.863  0.00  0.00    -0.004 A 
ENDBRANCH   1   2
BRANCH   1   8
ATOM      8  CA  PHE A   1       9.539  -8.913  -4.066  0.00  0.00    +0.137 C 
BRANCH   8   9
ATOM      9  N   PHE A   1      10.056  -8.334  -2.823  0.00  0.00    -0.239 NA
ATOM     10  H   PHE A   1      11.010  -7.921  -2.807  0.00  0.00    +0.142 HD
ENDBRANCH   8   9
BRANCH   8  11
ATOM     11  C   PHE A   1       9.320 -10.403  -3.914  0.00  0.00    +0.224 C 
ATOM     12  O   PHE A   1       8.298 -10.912  -4.357  0.00  0.00    -0.287 OA
ENDBRANCH   8  11
ENDBRANCH   1   8
TORSDOF 4
REMARK  Name = ../refined-set-2016/4jpx/4jpx_pocket.pdb
REMARK  125 active torsions:
REMARK  status: ('A' for Active; 'I' for Inactive)
REMARK    1  A    between atoms: _1  and  _3
REMARK    2  A    between atoms: _3  and  _4
REMARK    3  A    between atoms: _3  and  _6
REMARK    4  A    between atoms: _6  and  _7
REMARK    5  A    between atoms: _13  and  _15
REMARK    6  A    between atoms: _15  and  _16
REMARK    7  A    between atoms: _15  and  _18
REMARK    8  A    between atoms: _18  and  _19
REMARK    9  A    between atoms: _22  and  _24
REMARK   10  A    between atoms: _24  and  _25
REMARK   11  A    between atoms: _24  and  _27
REMARK   12  A    between atoms: _27  and  _28
REMARK   13  A    between atoms: _33  and  _34
REMARK   14  A    between atoms: _36  and  _38
REMARK   15  A    between atoms: _38  and  _39
REMARK   16  A    between atoms: _38  and  _41
REMARK   17  A    between atoms: _41  and  _42
REMARK   18  A    between atoms: _45  and  _47
REMARK   19  A    between atoms: _47  and  _48
REMARK   20  A    between atoms: _47  and  _50
REMARK   21  A    between atoms: _50  and  _51
REMARK   22  A    between atoms: _51  and  _52
REMARK   23  A    between atoms: _55  and  _57
REMARK   24  A    between atoms: _57  and  _58
REMARK   25  A    between atoms: _61  and  _63
REMARK   26  A    between atoms: _63  and  _64
REMARK   27  A    between atoms: _63  and  _66
REMARK   28  A    between atoms: _66  and  _67
REMARK   29  A    between atoms: _72  and  _73
REMARK   30  A    between atoms: _75  and  _77
REMARK   31  A    between atoms: _77  and  _78
REMARK   32  A    between atoms: _80  and  _82
REMARK   33  A    between atoms: _82  and  _83
REMARK   34  A    between atoms: _82  and  _85
REMARK   35  A    between atoms: _85  and  _86
REMARK   36  A    between atoms: _86  and  _87
REMARK   37  A    between atoms: _87  and  _88
REMARK   38  A    between atoms: _88  and  _89
REMARK   39  A    between atoms: _93  and  _95
REMARK   40  A    between atoms: _95  and  _96
REMARK   41  A    between atoms: _98  and  _100
REMARK   42  A    between atoms: _100  and  _101
REMARK   43  A    between atoms: _103  and  _105
REMARK   44  A    between atoms: _105  and  _106
REMARK   45  A    between atoms: _105  and  _108
REMARK   46  A    between atoms: _111  and  _113
REMARK   47  A    between atoms: _113  and  _114
REMARK   48  A    between atoms: _113  and  _116
REMARK   49  A    between atoms: _116  and  _117
REMARK   50  A    between atoms: _117  and  _118
REMARK   51  A    between atoms: _118  and  _119
REMARK   52  A    between atoms: _119  and  _120
REMARK   53  A    between atoms: _124  and  _126
REMARK   54  A    between atoms: _126  and  _127
REMARK   55  A    between atoms: _130  and  _132
REMARK   56  A    between atoms: _132  and  _133
REMARK   57  A    between atoms: _132  and  _135
REMARK   58  A    between atoms: _135  and  _136
REMARK   59  A    between atoms: _139  and  _141
REMARK   60  A    between atoms: _141  and  _142
REMARK   61  A    between atoms: _141  and  _144
REMARK   62  A    between atoms: _144  and  _145
REMARK   63  A    between atoms: _148  and  _150
REMARK   64  A    between atoms: _150  and  _151
REMARK   65  A    between atoms: _150  and  _153
REMARK   66  A    between atoms: _153  and  _154
REMARK   67  A    between atoms: _157  and  _159
REMARK   68  A    between atoms: _159  and  _160
REMARK   69  A    between atoms: _159  and  _162
REMARK   70  A    between atoms: _162  and  _163
REMARK   71  A    between atoms: _168  and  _169
REMARK   72  A    between atoms: _171  and  _173
REMARK   73  A    between atoms: _173  and  _174
REMARK   74  A    between atoms: _173  and  _176
REMARK   75  A    between atoms: _176  and  _177
REMARK   76  A    between atoms: _180  and  _182
REMARK   77  A    between atoms: _182  and  _183
REMARK   78  A    between atoms: _182  and  _185
REMARK   79  A    between atoms: _185  and  _186
REMARK   80  A    between atoms: _189  and  _191
REMARK   81  A    between atoms: _191  and  _192
REMARK   82  A    between atoms: _191  and  _194
REMARK   83  A    between atoms: _194  and  _195
REMARK   84  A    between atoms: _195  and  _196
REMARK   85  A    between atoms: _198  and  _200
REMARK   86  A    between atoms: _200  and  _201
REMARK   87  A    between atoms: _200  and  _203
REMARK   88  A    between atoms: _203  and  _204
REMARK   89  A    between atoms: _207  and  _209
REMARK   90  A    between atoms: _209  and  _210
REMARK   91  A    between atoms: _209  and  _212
REMARK   92  A    between atoms: _212  and  _213
REMARK   93  A    between atoms: _219  and  _221
REMARK   94  A    between atoms: _221  and  _222
REMARK   95  A    between atoms: _221  and  _224
REMARK   96  A    between atoms: _224  and  _225
REMARK   97  A    between atoms: _228  and  _230
REMARK   98  A    between atoms: _230  and  _231
REMARK   99  A    between atoms: _234  and  _236
REMARK  100  A    between atoms: _236  and  _237
REMARK  101  A    between atoms: _236  and  _239
REMARK  102  A    between atoms: _239  and  _240
REMARK  103  A    between atoms: _243  and  _245
REMARK  104  A    between atoms: _245  and  _246
REMARK  105  A    between atoms: _250  and  _251
REMARK  106  A    between atoms: _256  and  _258
REMARK  107  A    between atoms: _258  and  _259
REMARK  108  A    between atoms: _258  and  _261
REMARK  109  A    between atoms: _261  and  _262
REMARK  110  A    between atoms: _265  and  _267
REMARK  111  A    between atoms: _267  and  _268
REMARK  112  A    between atoms: _267  and  _270
REMARK  113  A    between atoms: _270  and  _271
REMARK  114  A    between atoms: _277  and  _279
REMARK  115  A    between atoms: _279  and  _280
REMARK  116  A    between atoms: _284  and  _285
REMARK  117  A    between atoms: _290  and  _292
REMARK  118  A    between atoms: _292  and  _293
REMARK  119  A    between atoms: _292  and  _295
REMARK  120  A    between atoms: _295  and  _296
REMARK  121  A    between atoms: _299  and  _301
REMARK  122  A    between atoms: _301  and  _302
REMARK  123  A    between atoms: _301  and  _304
REMARK  124  A    between atoms: _304  and  _305
REMARK  125  A    between atoms: _310  and  _311
REMARK                            x       y       z     vdW  Elec       q    Type
REMARK                         _______ _______ _______ _____ _____    ______ ____
ROOT
ATOM      1  CA  TYR A   6       4.553  -7.530  -9.511  0.00  0.00    +0.153 C 
ENDROOT
BRANCH   1   2
ATOM      2  C   TYR A   6       5.751  -8.141  -8.780  0.00  0.00    +0.241 C 
ATOM      3  N   GLY A   7       5.475  -8.938  -7.747  0.00  0.00    -0.295 N 
ATOM      4  H   GLY A   7       4.484  -9.074  -7.461  0.00  0.00    +0.150 HD
ATOM      5  O   TYR A   6       6.908  -7.909  -9.156  0.00  0.00    -0.273 OA
BRANCH   3   6
ATOM      6  CA  GLY A   7       6.530  -9.625  -7.007  0.00  0.00    +0.176 C 
BRANCH   6   7
ATOM      7  C   GLY A   7       7.431 -10.429  -7.920  0.00  0.00    +0.243 C 
ATOM      8  O   GLY A   7       8.650 -10.300  -7.875  0.00  0.00    -0.273 OA
ATOM      9  N   LYS A   8       6.824 -11.253  -8.768  0.00  0.00    -0.297 N 
ATOM     10  H   LYS A   8       5.785 -11.308  -8.766  0.00  0.00    +0.150 HD
BRANCH   9  11
ATOM     11  CA  LYS A   8       7.584 -12.087  -9.707  0.00  0.00    +0.149 C 
BRANCH  11  12
ATOM     12  C   LYS A   8       8.431 -11.267 -10.682  0.00  0.00    +0.241 C 
ATOM     13  N   GLY A   9       7.975 -10.059 -10.997  0.00  0.00    -0.295 N 
ATOM     14  H   GLY A   9       7.070  -9.746 -10.592  0.00  0.00    +0.150 HD
ATOM     15  O   LYS A   8       9.490 -11.713 -11.110  0.00  0.00    -0.273 OA
BRANCH  13  16
ATOM     16  CA  GLY A   9       8.692  -9.154 -11.888  0.00  0.00    +0.176 C 
BRANCH  16  17
ATOM     17  C   GLY A   9       9.965  -8.554 -11.309  0.00  0.00    +0.243 C 
ATOM     18  N   GLY A  10      10.179  -8.709 -10.003  0.00  0.00    -0.295 N 
ATOM     19  H   GLY A  10       9.505  -9.265  -9.439  0.00  0.00    +0.150 HD
ATOM     20  O   GLY A   9      10.750  -7.949 -12.039  0.00  0.00    -0.273 OA
BRANCH  18  21
ATOM     21  CA  GLY A  10      11.342  -8.113  -9.345  0.00  0.00    +0.176 C 
BRANCH  21  22
ATOM     22  C   GLY A  10      12.670  -8.666  -9.814  0.00  0.00    +0.243 C 
ATOM     23  O   GLY A  10      13.656  -7.935  -9.895  0.00  0.00    -0.273 OA
ATOM     24  N   VAL A  11      12.689  -9.953 -10.142  0.00  0.00    -0.297 N 
ATOM     25  H   VAL A  11      11.809 -10.503 -10.074  0.00  0.00    +0.150 HD
BRANCH  24  26
ATOM     26  CA  VAL A  11      13.904 -10.620 -10.594  0.00  0.00    +0.149 C 
BRANCH  26  27
ATOM     27  C   VAL A  11      14.433  -9.971 -11.883  0.00  0.00    +0.241 C 
ATOM     28  O   VAL A  11      15.599  -9.583 -11.956  0.00  0.00    -0.273 OA
ATOM     29  N   LYS A  12      13.559  -9.829 -12.876  0.00  0.00    -0.297 N 
ATOM     30  H   LYS A  12      12.590 -10.183 -12.745  0.00  0.00    +0.150 HD
BRANCH  29  31
ATOM     31  CA  LYS A  12      13.911  -9.194 -14.143  0.00  0.00    +0.149 C 
BRANCH  31  32
ATOM     32  C   LYS A  12      14.364  -7.750 -13.941  0.00  0.00    +0.241 C 
ATOM     33  N   ALA A  13      13.635  -7.009 -13.115  0.00  0.00    -0.298 N 
ATOM     34  H   ALA A  13      12.828  -7.437 -12.619  0.00  0.00    +0.150 HD
ATOM     35  O   LYS A  12      15.359  -7.317 -14.518  0.00  0.00    -0.273 OA
BRANCH  33  36
ATOM     36  CA  ALA A  13      13.952  -5.598 -12.893  0.00  0.00    +0.137 C 
ATOM     37  CB  ALA A  13      12.886  -4.934 -12.040  0.00  0.00    +0.030 C 
BRANCH  36  38
ATOM     38  C   ALA A  13      15.339  -5.452 -12.259  0.00  0.00    +0.227 C 
ATOM     39  O   ALA A  13      16.146  -4.620 -12.690  0.00  0.00    -0.286 OA
ENDBRANCH  36  38
ENDBRANCH  33  36
ENDBRANCH  31  32
BRANCH  31  40
ATOM     40  CB  LYS A  12      12.710  -9.236 -15.104  0.00  0.00    +0.029 C 
BRANCH  40  41
ATOM     41  CG  LYS A  12      12.994  -8.722 -16.508  0.00  0.00    +0.000 C 
BRANCH  41  42
ATOM     42  CD  LYS A  12      11.737  -8.681 -17.363  0.00  0.00    -0.024 C 
BRANCH  42  43
ATOM     43  CE  LYS A  12      11.298 -10.068 -17.777  0.00  0.00    -0.086 C 
BRANCH  43  44
ATOM     44  NZ  LYS A  12      10.144  -9.990 -18.708  0.00  0.00    +0.380 N 
ATOM     45  HZ1 LYS A  12       9.351  -9.510 -18.236  0.00  0.00    -0.089 HD
ATOM     46  HZ2 LYS A  12       9.856 -10.951 -18.982  0.00  0.00    -0.089 HD
ATOM     47  HZ3 LYS A  12      10.420  -9.454 -19.556  0.00  0.00    -0.089 HD
ENDBRANCH  43  44
ENDBRANCH  42  43
ENDBRANCH  41  42
ENDBRANCH  40  41
ENDBRANCH  31  40
ENDBRANCH  29  31
ENDBRANCH  26  27
BRANCH  26  48
ATOM     48  CB  VAL A  11      13.668 -12.135 -10.776  0.00  0.00    +0.027 C 
ATOM     49  CG2 VAL A  11      13.355 -12.772  -9.427  0.00  0.00    +0.002 C 
ATOM     50  CG1 VAL A  11      14.878 -12.802 -11.421  0.00  0.00    +0.002 C 
ENDBRANCH  26  48
ENDBRANCH  24  26
ENDBRANCH  21  22
ENDBRANCH  18  21
ENDBRANCH  16  17
ENDBRANCH  13  16
ENDBRANCH  11  12
BRANCH  11  51
ATOM     51  CB  LYS A   8       6.643 -13.025 -10.466  0.00  0.00    +0.029 C 
BRANCH  51  52
ATOM     52  CG  LYS A   8       6.016 -14.061  -9.558  0.00  0.00    +0.000 C 
BRANCH  52  53
ATOM     53  CD  LYS A   8       5.012 -14.932 -10.286  0.00  0.00    -0.024 C 
BRANCH  53  54
ATOM     54  CE  LYS A   8       4.552 -16.065  -9.384  0.00  0.00    -0.086 C 
BRANCH  54  55
ATOM     55  NZ  LYS A   8       3.506 -16.909 -10.025  0.00  0.00    +0.380 N 
ATOM     56  HZ1 LYS A   8       3.225 -17.667  -9.371  0.00  0.00    -0.089 HD
ATOM     57  HZ2 LYS A   8       2.679 -16.321 -10.252  0.00  0.00    -0.089 HD
ATOM     58  HZ3 LYS A   8       3.886 -17.326 -10.899  0.00  0.00    -0.089 HD
ENDBRANCH  54  55
ENDBRANCH  53  54
ENDBRANCH  52  53
ENDBRANCH  51  52
ENDBRANCH  11  51
ENDBRANCH   9  11
ENDBRANCH   6   7
ENDBRANCH   3   6
ENDBRANCH   1   2
BRANCH   1  60
ATOM     59  C   ALA A   5       3.901  -9.619 -10.557  0.00  0.00    +0.241 C 
ATOM     60  N   TYR A   6       3.581  -8.576  -9.801  0.00  0.00    -0.297 N 
ATOM     61  H   TYR A   6       2.620  -8.504  -9.409  0.00  0.00    +0.150 HD
ATOM     62  O   ALA A   5       5.011  -9.754 -11.076  0.00  0.00    -0.273 OA
BRANCH  59  63
ATOM     63  CA  ALA A   5       2.818 -10.682 -10.729  0.00  0.00    +0.149 C 
ATOM     64  CB  ALA A   5       1.844 -10.283 -11.823  0.00  0.00    +0.031 C 
BRANCH  63  67
ATOM     65  C   GLU A   4       2.713 -11.384  -8.401  0.00  0.00    +0.241 C 
ATOM     66  O   GLU A   4       3.906 -11.665  -8.405  0.00  0.00    -0.273 OA
ATOM     67  N   ALA A   5       2.099 -10.901  -9.475  0.00  0.00    -0.297 N 
ATOM     68  H   ALA A   5       1.085 -10.674  -9.423  0.00  0.00    +0.150 HD
BRANCH  65  69
ATOM     69  CA  GLU A   4       1.866 -11.557  -7.125  0.00  0.00    +0.149 C 
BRANCH  69  72
ATOM     70  C   LEU A   3       1.571  -9.192  -6.725  0.00  0.00    +0.241 C 
ATOM     71  O   LEU A   3       2.782  -9.025  -6.662  0.00  0.00    -0.273 OA
ATOM     72  N   GLU A   4       1.026 -10.391  -6.902  0.00  0.00    -0.297 N 
ATOM     73  H   GLU A   4      -0.008 -10.496  -6.881  0.00  0.00    +0.150 HD
BRANCH  70  74
ATOM     74  CA  LEU A   3       0.617  -8.013  -6.586  0.00  0.00    +0.149 C 
BRANCH  74  76
ATOM     75  C   TYR A   2      -0.270  -7.987  -8.839  0.00  0.00    +0.241 C 
ATOM     76  N   LEU A   3      -0.497  -8.082  -7.538  0.00  0.00    -0.297 N 
ATOM     77  H   LEU A   3      -1.469  -8.206  -7.190  0.00  0.00    +0.150 HD
ATOM     78  O   TYR A   2       0.867  -7.868  -9.303  0.00  0.00    -0.273 OA
BRANCH  75  79
ATOM     79  CA  TYR A   2      -1.491  -8.072  -9.762  0.00  0.00    +0.153 C 
BRANCH  79  81
ATOM     80  C   ASP A   1      -1.902 -10.429  -9.347  0.00  0.00    +0.239 C 
ATOM     81  N   TYR A   2      -2.357  -9.180  -9.371  0.00  0.00    -0.297 N 
ATOM     82  H   TYR A   2      -3.345  -8.990  -9.107  0.00  0.00    +0.150 HD
ATOM     83  O   ASP A   1      -0.777 -10.732  -9.729  0.00  0.00    -0.274 OA
BRANCH  80  84
ATOM     84  CA  ASP A   1      -2.859 -11.505  -8.833  0.00  0.00    +0.156 C 
BRANCH  84  85
ATOM     85  N   ASP A   1      -3.661 -11.017  -7.712  0.00  0.00    -0.238 NA
ATOM     86  H   ASP A   1      -4.695 -10.957  -7.809  0.00  0.00    +0.142 HD
ENDBRANCH  84  85
BRANCH  84  87
ATOM     87  CB  ASP A   1      -3.746 -11.981  -9.981  0.00  0.00    +0.140 C 
BRANCH  87  88
ATOM     88  CG  ASP A   1      -4.312 -13.361  -9.752  0.00  0.00    +0.367 C 
ATOM     89  OD2 ASP A   1      -3.867 -14.058  -8.817  0.00  0.00    -0.246 OA
ATOM     90  OD1 ASP A   1      -5.213 -13.736 -10.527  0.00  0.00    -0.246 OA
ENDBRANCH  87  88
ENDBRANCH  84  87
ENDBRANCH  80  84
ENDBRANCH  79  81
BRANCH  79  91
ATOM     91  CB  TYR A   2      -2.289  -6.767  -9.778  0.00  0.00    +0.055 C 
BRANCH  91  92
ATOM     92  CG  TYR A   2      -1.454  -5.522  -9.985  0.00  0.00    -0.020 A 
ATOM     93  CD2 TYR A   2      -1.408  -4.526  -9.016  0.00  0.00    -0.001 A 
ATOM     94  CE2 TYR A   2      -0.644  -3.386  -9.206  0.00  0.00    +0.036 A 
ATOM     95  CZ  TYR A   2       0.068  -3.220 -10.376  0.00  0.00    +0.134 A 
ATOM     96  CE1 TYR A   2       0.049  -4.200 -11.347  0.00  0.00    +0.036 A 
ATOM     97  CD1 TYR A   2      -0.725  -5.335 -11.156  0.00  0.00    -0.001 A 
BRANCH  95  98
ATOM     98  OH  TYR A   2       0.833  -2.085 -10.573  0.00  0.00    -0.506 OA
ATOM     99  HH  TYR A   2       0.251  -1.285 -10.535  0.00  0.00    +0.292 HD
ENDBRANCH  95  98
ENDBRANCH  91  92
ENDBRANCH  79  91
ENDBRANCH  75  79
ENDBRANCH  74  76
BRANCH  74 100
ATOM    100  CB  LEU A   3       0.122  -7.898  -5.150  0.00  0.00    +0.029 C 
BRANCH 100 101
ATOM    101  CG  LEU A   3      -0.411  -6.548  -4.679  0.00  0.00    +0.002 C 
ATOM    102  CD2 LEU A   3      -0.590  -6.611  -3.173  0.00  0.00    +0.000 C 
ATOM    103  CD1 LEU A   3       0.506  -5.397  -5.046  0.00  0.00    +0.000 C 
ENDBRANCH 100 101
ENDBRANCH  74 100
ENDBRANCH  70  74
ENDBRANCH  69  72
BRANCH  69 104
ATOM    104  CB  GLU A   4       1.016 -12.829  -7.196  0.00  0.00    +0.041 C 
BRANCH 104 105
ATOM    105  CG  GLU A   4       1.842 -14.103  -7.308  0.00  0.00    +0.116 C 
BRANCH 105 106
ATOM    106  CD  GLU A   4       1.016 -15.342  -7.595  0.00  0.00    +0.365 C 
ATOM    107  OE2 GLU A   4      -0.221 -15.309  -7.461  0.00  0.00    -0.246 OA
ATOM    108  OE1 GLU A   4       1.624 -16.361  -7.969  0.00  0.00    -0.246 OA
ENDBRANCH 105 106
ENDBRANCH 104 105
ENDBRANCH  69 104
ENDBRANCH  65  69
ENDBRANCH  63  67
ENDBRANCH  59  63
ENDBRANCH   1  60
BRANCH   1 109
ATOM    109  CB  TYR A   6       3.907  -6.415  -8.679  0.00  0.00    +0.055 C 
BRANCH 109 110
ATOM    110  CG  TYR A   6       4.881  -5.340  -8.256  0.00  0.00    -0.020 A 
ATOM    111  CD2 TYR A   6       5.555  -5.429  -7.043  0.00  0.00    -0.001 A 
ATOM    112  CE2 TYR A   6       6.464  -4.456  -6.655  0.00  0.00    +0.036 A 
ATOM    113  CZ  TYR A   6       6.691  -3.376  -7.485  0.00  0.00    +0.134 A 
ATOM    114  CE1 TYR A   6       6.027  -3.266  -8.697  0.00  0.00    +0.036 A 
ATOM    115  CD1 TYR A   6       5.123  -4.238  -9.069  0.00  0.00    -0.001 A 
BRANCH 113 116
ATOM    116  OH  TYR A   6       7.592  -2.406  -7.108  0.00  0.00    -0.506 OA
ATOM    117  HH  TYR A   6       7.636  -1.708  -7.809  0.00  0.00    +0.292 HD
ENDBRANCH 113 116
ENDBRANCH 109 110
ENDBRANCH   1 109
TORSDOF 50
REMARK  Name = ../refined-set-2016/4jpx/4jpx_pocket.pdb
REMARK  125 active torsions:
REMARK  status: ('A' for Active; 'I' for Inactive)
REMARK    1  A    between atoms: _1  and  _3
REMARK    2  A    between atoms: _3  and  _4
REMARK    3  A    between atoms: _3  and  _6
REMARK    4  A    between atoms: _6  and  _7
REMARK    5  A    between atoms: _13  and  _15
REMARK    6  A    between atoms: _15  and  _16
REMARK    7  A    between atoms: _15  and  _18
REMARK    8  A    between atoms: _18  and  _19
REMARK    9  A    between atoms: _22  and  _24
REMARK   10  A    between atoms: _24  and  _25
REMARK   11  A    between atoms: _24  and  _27
REMARK   12  A    between atoms: _27  and  _28
REMARK   13  A    between atoms: _33  and  _34
REMARK   14  A    between atoms: _36  and  _38
REMARK   15  A    between atoms: _38  and  _39
REMARK   16  A    between atoms: _38  and  _41
REMARK   17  A    between atoms: _41  and  _42
REMARK   18  A    between atoms: _45  and  _47
REMARK   19  A    between atoms: _47  and  _48
REMARK   20  A    between atoms: _47  and  _50
REMARK   21  A    between atoms: _50  and  _51
REMARK   22  A    between atoms: _51  and  _52
REMARK   23  A    between atoms: _55  and  _57
REMARK   24  A    between atoms: _57  and  _58
REMARK   25  A    between atoms: _61  and  _63
REMARK   26  A    between atoms: _63  and  _64
REMARK   27  A    between atoms: _63  and  _66
REMARK   28  A    between atoms: _66  and  _67
REMARK   29  A    between atoms: _72  and  _73
REMARK   30  A    between atoms: _75  and  _77
REMARK   31  A    between atoms: _77  and  _78
REMARK   32  A    between atoms: _80  and  _82
REMARK   33  A    between atoms: _82  and  _83
REMARK   34  A    between atoms: _82  and  _85
REMARK   35  A    between atoms: _85  and  _86
REMARK   36  A    between atoms: _86  and  _87
REMARK   37  A    between atoms: _87  and  _88
REMARK   38  A    between atoms: _88  and  _89
REMARK   39  A    between atoms: _93  and  _95
REMARK   40  A    between atoms: _95  and  _96
REMARK   41  A    between atoms: _98  and  _100
REMARK   42  A    between atoms: _100  and  _101
REMARK   43  A    between atoms: _103  and  _105
REMARK   44  A    between atoms: _105  and  _106
REMARK   45  A    between atoms: _105  and  _108
REMARK   46  A    between atoms: _111  and  _113
REMARK   47  A    between atoms: _113  and  _114
REMARK   48  A    between atoms: _113  and  _116
REMARK   49  A    between atoms: _116  and  _117
REMARK   50  A    between atoms: _117  and  _118
REMARK   51  A    between atoms: _118  and  _119
REMARK   52  A    between atoms: _119  and  _120
REMARK   53  A    between atoms: _124  and  _126
REMARK   54  A    between atoms: _126  and  _127
REMARK   55  A    between atoms: _130  and  _132
REMARK   56  A    between atoms: _132  and  _133
REMARK   57  A    between atoms: _132  and  _135
REMARK   58  A    between atoms: _135  and  _136
REMARK   59  A    between atoms: _139  and  _141
REMARK   60  A    between atoms: _141  and  _142
REMARK   61  A    between atoms: _141  and  _144
REMARK   62  A    between atoms: _144  and  _145
REMARK   63  A    between atoms: _148  and  _150
REMARK   64  A    between atoms: _150  and  _151
REMARK   65  A    between atoms: _150  and  _153
REMARK   66  A    between atoms: _153  and  _154
REMARK   67  A    between atoms: _157  and  _159
REMARK   68  A    between atoms: _159  and  _160
REMARK   69  A    between atoms: _159  and  _162
REMARK   70  A    between atoms: _162  and  _163
REMARK   71  A    between atoms: _168  and  _169
REMARK   72  A    between atoms: _171  and  _173
REMARK   73  A    between atoms: _173  and  _174
REMARK   74  A    between atoms: _173  and  _176
REMARK   75  A    between atoms: _176  and  _177
REMARK   76  A    between atoms: _180  and  _182
REMARK   77  A    between atoms: _182  and  _183
REMARK   78  A    between atoms: _182  and  _185
REMARK   79  A    between atoms: _185  and  _186
REMARK   80  A    between atoms: _189  and  _191
REMARK   81  A    between atoms: _191  and  _192
REMARK   82  A    between atoms: _191  and  _194
REMARK   83  A    between atoms: _194  and  _195
REMARK   84  A    between atoms: _195  and  _196
REMARK   85  A    between atoms: _198  and  _200
REMARK   86  A    between atoms: _200  and  _201
REMARK   87  A    between atoms: _200  and  _203
REMARK   88  A    between atoms: _203  and  _204
REMARK   89  A    between atoms: _207  and  _209
REMARK   90  A    between atoms: _209  and  _210
REMARK   91  A    between atoms: _209  and  _212
REMARK   92  A    between atoms: _212  and  _213
REMARK   93  A    between atoms: _219  and  _221
REMARK   94  A    between atoms: _221  and  _222
REMARK   95  A    between atoms: _221  and  _224
REMARK   96  A    between atoms: _224  and  _225
REMARK   97  A    between atoms: _228  and  _230
REMARK   98  A    between atoms: _230  and  _231
REMARK   99  A    between atoms: _234  and  _236
REMARK  100  A    between atoms: _236  and  _237
REMARK  101  A    between atoms: _236  and  _239
REMARK  102  A    between atoms: _239  and  _240
REMARK  103  A    between atoms: _243  and  _245
REMARK  104  A    between atoms: _245  and  _246
REMARK  105  A    between atoms: _250  and  _251
REMARK  106  A    between atoms: _256  and  _258
REMARK  107  A    between atoms: _258  and  _259
REMARK  108  A    between atoms: _258  and  _261
REMARK  109  A    between atoms: _261  and  _262
REMARK  110  A    between atoms: _265  and  _267
REMARK  111  A    between atoms: _267  and  _268
REMARK  112  A    between atoms: _267  and  _270
REMARK  113  A    between atoms: _270  and  _271
REMARK  114  A    between atoms: _277  and  _279
REMARK  115  A    between atoms: _279  and  _280
REMARK  116  A    between atoms: _284  and  _285
REMARK  117  A    between atoms: _290  and  _292
REMARK  118  A    between atoms: _292  and  _293
REMARK  119  A    between atoms: _292  and  _295
REMARK  120  A    between atoms: _295  and  _296
REMARK  121  A    between atoms: _299  and  _301
REMARK  122  A    between atoms: _301  and  _302
REMARK  123  A    between atoms: _301  and  _304
REMARK  124  A    between atoms: _304  and  _305
REMARK  125  A    between atoms: _310  and  _311
REMARK                            x       y       z     vdW  Elec       q    Type
REMARK                         _______ _______ _______ _____ _____    ______ ____
ROOT
ATOM      1  CA  LEU A   1      18.428  -4.908 -15.597  0.00  0.00    +0.133 C 
ENDROOT
BRANCH   1   2
ATOM      2  N   LEU A   1      18.281  -5.983 -14.613  0.00  0.00    -0.239 NA
ATOM      3  H   LEU A   1      17.365  -6.089 -14.132  0.00  0.00    +0.142 HD
ENDBRANCH   1   2
BRANCH   1   4
ATOM      4  C   LEU A   1      18.636  -3.525 -14.979  0.00  0.00    +0.224 C 
ATOM      5  O   LEU A   1      18.685  -2.521 -15.705  0.00  0.00    -0.287 OA
ENDBRANCH   1   4
BRANCH   1   6
ATOM      6  CB  LEU A   1      17.194  -4.884 -16.505  0.00  0.00    +0.025 C 
BRANCH   6   7
ATOM      7  CG  LEU A   1      17.004  -6.148 -17.343  0.00  0.00    +0.002 C 
ATOM      8  CD2 LEU A   1      15.686  -6.113 -18.092  0.00  0.00    +0.000 C 
ATOM      9  CD1 LEU A   1      18.168  -6.329 -18.309  0.00  0.00    +0.000 C 
ENDBRANCH   6   7
ENDBRANCH   1   6
TORSDOF 4
REMARK  Name = ../refined-set-2016/4jpx/4jpx_pocket.pdb
REMARK  125 active torsions:
REMARK  status: ('A' for Active; 'I' for Inactive)
REMARK    1  A    between atoms: _1  and  _3
REMARK    2  A    between atoms: _3  and  _4
REMARK    3  A    between atoms: _3  and  _6
REMARK    4  A    between atoms: _6  and  _7
REMARK    5  A    between atoms: _13  and  _15
REMARK    6  A    between atoms: _15  and  _16
REMARK    7  A    between atoms: _15  and  _18
REMARK    8  A    between atoms: _18  and  _19
REMARK    9  A    between atoms: _22  and  _24
REMARK   10  A    between atoms: _24  and  _25
REMARK   11  A    between atoms: _24  and  _27
REMARK   12  A    between atoms: _27  and  _28
REMARK   13  A    between atoms: _33  and  _34
REMARK   14  A    between atoms: _36  and  _38
REMARK   15  A    between atoms: _38  and  _39
REMARK   16  A    between atoms: _38  and  _41
REMARK   17  A    between atoms: _41  and  _42
REMARK   18  A    between atoms: _45  and  _47
REMARK   19  A    between atoms: _47  and  _48
REMARK   20  A    between atoms: _47  and  _50
REMARK   21  A    between atoms: _50  and  _51
REMARK   22  A    between atoms: _51  and  _52
REMARK   23  A    between atoms: _55  and  _57
REMARK   24  A    between atoms: _57  and  _58
REMARK   25  A    between atoms: _61  and  _63
REMARK   26  A    between atoms: _63  and  _64
REMARK   27  A    between atoms: _63  and  _66
REMARK   28  A    between atoms: _66  and  _67
REMARK   29  A    between atoms: _72  and  _73
REMARK   30  A    between atoms: _75  and  _77
REMARK   31  A    between atoms: _77  and  _78
REMARK   32  A    between atoms: _80  and  _82
REMARK   33  A    between atoms: _82  and  _83
REMARK   34  A    between atoms: _82  and  _85
REMARK   35  A    between atoms: _85  and  _86
REMARK   36  A    between atoms: _86  and  _87
REMARK   37  A    between atoms: _87  and  _88
REMARK   38  A    between atoms: _88  and  _89
REMARK   39  A    between atoms: _93  and  _95
REMARK   40  A    between atoms: _95  and  _96
REMARK   41  A    between atoms: _98  and  _100
REMARK   42  A    between atoms: _100  and  _101
REMARK   43  A    between atoms: _103  and  _105
REMARK   44  A    between atoms: _105  and  _106
REMARK   45  A    between atoms: _105  and  _108
REMARK   46  A    between atoms: _111  and  _113
REMARK   47  A    between atoms: _113  and  _114
REMARK   48  A    between atoms: _113  and  _116
REMARK   49  A    between atoms: _116  and  _117
REMARK   50  A    between atoms: _117  and  _118
REMARK   51  A    between atoms: _118  and  _119
REMARK   52  A    between atoms: _119  and  _120
REMARK   53  A    between atoms: _124  and  _126
REMARK   54  A    between atoms: _126  and  _127
REMARK   55  A    between atoms: _130  and  _132
REMARK   56  A    between atoms: _132  and  _133
REMARK   57  A    between atoms: _132  and  _135
REMARK   58  A    between atoms: _135  and  _136
REMARK   59  A    between atoms: _139  and  _141
REMARK   60  A    between atoms: _141  and  _142
REMARK   61  A    between atoms: _141  and  _144
REMARK   62  A    between atoms: _144  and  _145
REMARK   63  A    between atoms: _148  and  _150
REMARK   64  A    between atoms: _150  and  _151
REMARK   65  A    between atoms: _150  and  _153
REMARK   66  A    between atoms: _153  and  _154
REMARK   67  A    between atoms: _157  and  _159
REMARK   68  A    between atoms: _159  and  _160
REMARK   69  A    between atoms: _159  and  _162
REMARK   70  A    between atoms: _162  and  _163
REMARK   71  A    between atoms: _168  and  _169
REMARK   72  A    between atoms: _171  and  _173
REMARK   73  A    between atoms: _173  and  _174
REMARK   74  A    between atoms: _173  and  _176
REMARK   75  A    between atoms: _176  and  _177
REMARK   76  A    between atoms: _180  and  _182
REMARK   77  A    between atoms: _182  and  _183
REMARK   78  A    between atoms: _182  and  _185
REMARK   79  A    between atoms: _185  and  _186
REMARK   80  A    between atoms: _189  and  _191
REMARK   81  A    between atoms: _191  and  _192
REMARK   82  A    between atoms: _191  and  _194
REMARK   83  A    between atoms: _194  and  _195
REMARK   84  A    between atoms: _195  and  _196
REMARK   85  A    between atoms: _198  and  _200
REMARK   86  A    between atoms: _200  and  _201
REMARK   87  A    between atoms: _200  and  _203
REMARK   88  A    between atoms: _203  and  _204
REMARK   89  A    between atoms: _207  and  _209
REMARK   90  A    between atoms: _209  and  _210
REMARK   91  A    between atoms: _209  and  _212
REMARK   92  A    between atoms: _212  and  _213
REMARK   93  A    between atoms: _219  and  _221
REMARK   94  A    between atoms: _221  and  _222
REMARK   95  A    between atoms: _221  and  _224
REMARK   96  A    between atoms: _224  and  _225
REMARK   97  A    between atoms: _228  and  _230
REMARK   98  A    between atoms: _230  and  _231
REMARK   99  A    between atoms: _234  and  _236
REMARK  100  A    between atoms: _236  and  _237
REMARK  101  A    between atoms: _236  and  _239
REMARK  102  A    between atoms: _239  and  _240
REMARK  103  A    between atoms: _243  and  _245
REMARK  104  A    between atoms: _245  and  _246
REMARK  105  A    between atoms: _250  and  _251
REMARK  106  A    between atoms: _256  and  _258
REMARK  107  A    between atoms: _258  and  _259
REMARK  108  A    between atoms: _258  and  _261
REMARK  109  A    between atoms: _261  and  _262
REMARK  110  A    between atoms: _265  and  _267
REMARK  111  A    between atoms: _267  and  _268
REMARK  112  A    between atoms: _267  and  _270
REMARK  113  A    between atoms: _270  and  _271
REMARK  114  A    between atoms: _277  and  _279
REMARK  115  A    between atoms: _279  and  _280
REMARK  116  A    between atoms: _284  and  _285
REMARK  117  A    between atoms: _290  and  _292
REMARK  118  A    between atoms: _292  and  _293
REMARK  119  A    between atoms: _292  and  _295
REMARK  120  A    between atoms: _295  and  _296
REMARK  121  A    between atoms: _299  and  _301
REMARK  122  A    between atoms: _301  and  _302
REMARK  123  A    between atoms: _301  and  _304
REMARK  124  A    between atoms: _304  and  _305
REMARK  125  A    between atoms: _310  and  _311
REMARK                            x       y       z     vdW  Elec       q    Type
REMARK                         _______ _______ _______ _____ _____    ______ ____
ROOT
ATOM      1  CA  LEU A   1       9.017  -0.869 -10.930  0.00  0.00    +0.133 C 
ENDROOT
BRANCH   1   2
ATOM      2  N   LEU A   1      10.078  -0.108 -11.598  0.00  0.00    -0.239 NA
ATOM      3  H   LEU A   1      11.030  -0.519 -11.680  0.00  0.00    +0.142 HD
ENDBRANCH   1   2
BRANCH   1   4
ATOM      4  C   LEU A   1       8.540  -0.159  -9.673  0.00  0.00    +0.224 C 
ATOM      5  O   LEU A   1       7.346  -0.157  -9.381  0.00  0.00    -0.287 OA
ENDBRANCH   1   4
BRANCH   1   6
ATOM      6  CB  LEU A   1       9.449  -2.294 -10.552  0.00  0.00    +0.025 C 
BRANCH   6   7
ATOM      7  CG  LEU A   1       9.306  -3.399 -11.583  0.00  0.00    +0.002 C 
ATOM      8  CD2 LEU A   1       9.565  -4.742 -10.919  0.00  0.00    +0.000 C 
ATOM      9  CD1 LEU A   1       7.929  -3.384 -12.225  0.00  0.00    +0.000 C 
ENDBRANCH   6   7
ENDBRANCH   1   6
TORSDOF 4
REMARK  Name = ../refined-set-2016/4jpx/4jpx_pocket.pdb
REMARK  125 active torsions:
REMARK  status: ('A' for Active; 'I' for Inactive)
REMARK    1  A    between atoms: _1  and  _3
REMARK    2  A    between atoms: _3  and  _4
REMARK    3  A    between atoms: _3  and  _6
REMARK    4  A    between atoms: _6  and  _7
REMARK    5  A    between atoms: _13  and  _15
REMARK    6  A    between atoms: _15  and  _16
REMARK    7  A    between atoms: _15  and  _18
REMARK    8  A    between atoms: _18  and  _19
REMARK    9  A    between atoms: _22  and  _24
REMARK   10  A    between atoms: _24  and  _25
REMARK   11  A    between atoms: _24  and  _27
REMARK   12  A    between atoms: _27  and  _28
REMARK   13  A    between atoms: _33  and  _34
REMARK   14  A    between atoms: _36  and  _38
REMARK   15  A    between atoms: _38  and  _39
REMARK   16  A    between atoms: _38  and  _41
REMARK   17  A    between atoms: _41  and  _42
REMARK   18  A    between atoms: _45  and  _47
REMARK   19  A    between atoms: _47  and  _48
REMARK   20  A    between atoms: _47  and  _50
REMARK   21  A    between atoms: _50  and  _51
REMARK   22  A    between atoms: _51  and  _52
REMARK   23  A    between atoms: _55  and  _57
REMARK   24  A    between atoms: _57  and  _58
REMARK   25  A    between atoms: _61  and  _63
REMARK   26  A    between atoms: _63  and  _64
REMARK   27  A    between atoms: _63  and  _66
REMARK   28  A    between atoms: _66  and  _67
REMARK   29  A    between atoms: _72  and  _73
REMARK   30  A    between atoms: _75  and  _77
REMARK   31  A    between atoms: _77  and  _78
REMARK   32  A    between atoms: _80  and  _82
REMARK   33  A    between atoms: _82  and  _83
REMARK   34  A    between atoms: _82  and  _85
REMARK   35  A    between atoms: _85  and  _86
REMARK   36  A    between atoms: _86  and  _87
REMARK   37  A    between atoms: _87  and  _88
REMARK   38  A    between atoms: _88  and  _89
REMARK   39  A    between atoms: _93  and  _95
REMARK   40  A    between atoms: _95  and  _96
REMARK   41  A    between atoms: _98  and  _100
REMARK   42  A    between atoms: _100  and  _101
REMARK   43  A    between atoms: _103  and  _105
REMARK   44  A    between atoms: _105  and  _106
REMARK   45  A    between atoms: _105  and  _108
REMARK   46  A    between atoms: _111  and  _113
REMARK   47  A    between atoms: _113  and  _114
REMARK   48  A    between atoms: _113  and  _116
REMARK   49  A    between atoms: _116  and  _117
REMARK   50  A    between atoms: _117  and  _118
REMARK   51  A    between atoms: _118  and  _119
REMARK   52  A    between atoms: _119  and  _120
REMARK   53  A    between atoms: _124  and  _126
REMARK   54  A    between atoms: _126  and  _127
REMARK   55  A    between atoms: _130  and  _132
REMARK   56  A    between atoms: _132  and  _133
REMARK   57  A    between atoms: _132  and  _135
REMARK   58  A    between atoms: _135  and  _136
REMARK   59  A    between atoms: _139  and  _141
REMARK   60  A    between atoms: _141  and  _142
REMARK   61  A    between atoms: _141  and  _144
REMARK   62  A    between atoms: _144  and  _145
REMARK   63  A    between atoms: _148  and  _150
REMARK   64  A    between atoms: _150  and  _151
REMARK   65  A    between atoms: _150  and  _153
REMARK   66  A    between atoms: _153  and  _154
REMARK   67  A    between atoms: _157  and  _159
REMARK   68  A    between atoms: _159  and  _160
REMARK   69  A    between atoms: _159  and  _162
REMARK   70  A    between atoms: _162  and  _163
REMARK   71  A    between atoms: _168  and  _169
REMARK   72  A    between atoms: _171  and  _173
REMARK   73  A    between atoms: _173  and  _174
REMARK   74  A    between atoms: _173  and  _176
REMARK   75  A    between atoms: _176  and  _177
REMARK   76  A    between atoms: _180  and  _182
REMARK   77  A    between atoms: _182  and  _183
REMARK   78  A    between atoms: _182  and  _185
REMARK   79  A    between atoms: _185  and  _186
REMARK   80  A    between atoms: _189  and  _191
REMARK   81  A    between atoms: _191  and  _192
REMARK   82  A    between atoms: _191  and  _194
REMARK   83  A    between atoms: _194  and  _195
REMARK   84  A    between atoms: _195  and  _196
REMARK   85  A    between atoms: _198  and  _200
REMARK   86  A    between atoms: _200  and  _201
REMARK   87  A    between atoms: _200  and  _203
REMARK   88  A    between atoms: _203  and  _204
REMARK   89  A    between atoms: _207  and  _209
REMARK   90  A    between atoms: _209  and  _210
REMARK   91  A    between atoms: _209  and  _212
REMARK   92  A    between atoms: _212  and  _213
REMARK   93  A    between atoms: _219  and  _221
REMARK   94  A    between atoms: _221  and  _222
REMARK   95  A    between atoms: _221  and  _224
REMARK   96  A    between atoms: _224  and  _225
REMARK   97  A    between atoms: _228  and  _230
REMARK   98  A    between atoms: _230  and  _231
REMARK   99  A    between atoms: _234  and  _236
REMARK  100  A    between atoms: _236  and  _237
REMARK  101  A    between atoms: _236  and  _239
REMARK  102  A    between atoms: _239  and  _240
REMARK  103  A    between atoms: _243  and  _245
REMARK  104  A    between atoms: _245  and  _246
REMARK  105  A    between atoms: _250  and  _251
REMARK  106  A    between atoms: _256  and  _258
REMARK  107  A    between atoms: _258  and  _259
REMARK  108  A    between atoms: _258  and  _261
REMARK  109  A    between atoms: _261  and  _262
REMARK  110  A    between atoms: _265  and  _267
REMARK  111  A    between atoms: _267  and  _268
REMARK  112  A    between atoms: _267  and  _270
REMARK  113  A    between atoms: _270  and  _271
REMARK  114  A    between atoms: _277  and  _279
REMARK  115  A    between atoms: _279  and  _280
REMARK  116  A    between atoms: _284  and  _285
REMARK  117  A    between atoms: _290  and  _292
REMARK  118  A    between atoms: _292  and  _293
REMARK  119  A    between atoms: _292  and  _295
REMARK  120  A    between atoms: _295  and  _296
REMARK  121  A    between atoms: _299  and  _301
REMARK  122  A    between atoms: _301  and  _302
REMARK  123  A    between atoms: _301  and  _304
REMARK  124  A    between atoms: _304  and  _305
REMARK  125  A    between atoms: _310  and  _311
REMARK                            x       y       z     vdW  Elec       q    Type
REMARK                         _______ _______ _______ _____ _____    ______ ____
ROOT
ATOM      1  CA  TYR A   2       4.080   0.369  -7.364  0.00  0.00    +0.141 C 
ENDROOT
BRANCH   1   3
ATOM      2  C   LEU A   1       3.963   1.315  -9.613  0.00  0.00    +0.238 C 
ATOM      3  N   TYR A   2       4.674   0.713  -8.664  0.00  0.00    -0.298 N 
ATOM      4  H   TYR A   2       5.671   0.481  -8.845  0.00  0.00    +0.150 HD
ATOM      5  O   LEU A   1       2.775   1.574  -9.488  0.00  0.00    -0.274 OA
BRANCH   2   6
ATOM      6  CA  LEU A   1       4.694   1.679 -10.898  0.00  0.00    +0.145 C 
BRANCH   6   7
ATOM      7  N   LEU A   1       5.969   2.344 -10.602  0.00  0.00    -0.238 NA
ATOM      8  H   LEU A   1       6.857   1.917 -10.935  0.00  0.00    +0.142 HD
ENDBRANCH   6   7
BRANCH   6   9
ATOM      9  CB  LEU A   1       4.922   0.418 -11.738  0.00  0.00    +0.026 C 
BRANCH   9  10
ATOM     10  CG  LEU A   1       3.676  -0.401 -12.056  0.00  0.00    +0.002 C 
ATOM     11  CD2 LEU A   1       4.093  -1.642 -12.826  0.00  0.00    +0.000 C 
ATOM     12  CD1 LEU A   1       2.649   0.413 -12.835  0.00  0.00    +0.000 C 
ENDBRANCH   9  10
ENDBRANCH   6   9
ENDBRANCH   2   6
ENDBRANCH   1   3
BRANCH   1  13
ATOM     13  C   TYR A   2       3.550   1.609  -6.658  0.00  0.00    +0.227 C 
ATOM     14  O   TYR A   2       2.434   1.624  -6.154  0.00  0.00    -0.286 OA
ENDBRANCH   1  13
BRANCH   1  15
ATOM     15  CB  TYR A   2       5.103  -0.333  -6.482  0.00  0.00    +0.054 C 
BRANCH  15  16
ATOM     16  CG  TYR A   2       4.549  -1.000  -5.238  0.00  0.00    -0.020 A 
ATOM     17  CD2 TYR A   2       4.529  -0.344  -4.013  0.00  0.00    -0.001 A 
ATOM     18  CE2 TYR A   2       4.054  -0.966  -2.871  0.00  0.00    +0.036 A 
ATOM     19  CZ  TYR A   2       3.586  -2.263  -2.942  0.00  0.00    +0.134 A 
ATOM     20  CE1 TYR A   2       3.594  -2.937  -4.149  0.00  0.00    +0.036 A 
ATOM     21  CD1 TYR A   2       4.070  -2.303  -5.284  0.00  0.00    -0.001 A 
BRANCH  19  22
ATOM     22  OH  TYR A   2       3.108  -2.893  -1.818  0.00  0.00    -0.506 OA
ATOM     23  HH  TYR A   2       3.824  -2.938  -1.136  0.00  0.00    +0.292 HD
ENDBRANCH  19  22
ENDBRANCH  15  16
ENDBRANCH   1  15
TORSDOF 9
REMARK  Name = ../refined-set-2016/4jpx/4jpx_pocket.pdb
REMARK  125 active torsions:
REMARK  status: ('A' for Active; 'I' for Inactive)
REMARK    1  A    between atoms: _1  and  _3
REMARK    2  A    between atoms: _3  and  _4
REMARK    3  A    between atoms: _3  and  _6
REMARK    4  A    between atoms: _6  and  _7
REMARK    5  A    between atoms: _13  and  _15
REMARK    6  A    between atoms: _15  and  _16
REMARK    7  A    between atoms: _15  and  _18
REMARK    8  A    between atoms: _18  and  _19
REMARK    9  A    between atoms: _22  and  _24
REMARK   10  A    between atoms: _24  and  _25
REMARK   11  A    between atoms: _24  and  _27
REMARK   12  A    between atoms: _27  and  _28
REMARK   13  A    between atoms: _33  and  _34
REMARK   14  A    between atoms: _36  and  _38
REMARK   15  A    between atoms: _38  and  _39
REMARK   16  A    between atoms: _38  and  _41
REMARK   17  A    between atoms: _41  and  _42
REMARK   18  A    between atoms: _45  and  _47
REMARK   19  A    between atoms: _47  and  _48
REMARK   20  A    between atoms: _47  and  _50
REMARK   21  A    between atoms: _50  and  _51
REMARK   22  A    between atoms: _51  and  _52
REMARK   23  A    between atoms: _55  and  _57
REMARK   24  A    between atoms: _57  and  _58
REMARK   25  A    between atoms: _61  and  _63
REMARK   26  A    between atoms: _63  and  _64
REMARK   27  A    between atoms: _63  and  _66
REMARK   28  A    between atoms: _66  and  _67
REMARK   29  A    between atoms: _72  and  _73
REMARK   30  A    between atoms: _75  and  _77
REMARK   31  A    between atoms: _77  and  _78
REMARK   32  A    between atoms: _80  and  _82
REMARK   33  A    between atoms: _82  and  _83
REMARK   34  A    between atoms: _82  and  _85
REMARK   35  A    between atoms: _85  and  _86
REMARK   36  A    between atoms: _86  and  _87
REMARK   37  A    between atoms: _87  and  _88
REMARK   38  A    between atoms: _88  and  _89
REMARK   39  A    between atoms: _93  and  _95
REMARK   40  A    between atoms: _95  and  _96
REMARK   41  A    between atoms: _98  and  _100
REMARK   42  A    between atoms: _100  and  _101
REMARK   43  A    between atoms: _103  and  _105
REMARK   44  A    between atoms: _105  and  _106
REMARK   45  A    between atoms: _105  and  _108
REMARK   46  A    between atoms: _111  and  _113
REMARK   47  A    between atoms: _113  and  _114
REMARK   48  A    between atoms: _113  and  _116
REMARK   49  A    between atoms: _116  and  _117
REMARK   50  A    between atoms: _117  and  _118
REMARK   51  A    between atoms: _118  and  _119
REMARK   52  A    between atoms: _119  and  _120
REMARK   53  A    between atoms: _124  and  _126
REMARK   54  A    between atoms: _126  and  _127
REMARK   55  A    between atoms: _130  and  _132
REMARK   56  A    between atoms: _132  and  _133
REMARK   57  A    between atoms: _132  and  _135
REMARK   58  A    between atoms: _135  and  _136
REMARK   59  A    between atoms: _139  and  _141
REMARK   60  A    between atoms: _141  and  _142
REMARK   61  A    between atoms: _141  and  _144
REMARK   62  A    between atoms: _144  and  _145
REMARK   63  A    between atoms: _148  and  _150
REMARK   64  A    between atoms: _150  and  _151
REMARK   65  A    between atoms: _150  and  _153
REMARK   66  A    between atoms: _153  and  _154
REMARK   67  A    between atoms: _157  and  _159
REMARK   68  A    between atoms: _159  and  _160
REMARK   69  A    between atoms: _159  and  _162
REMARK   70  A    between atoms: _162  and  _163
REMARK   71  A    between atoms: _168  and  _169
REMARK   72  A    between atoms: _171  and  _173
REMARK   73  A    between atoms: _173  and  _174
REMARK   74  A    between atoms: _173  and  _176
REMARK   75  A    between atoms: _176  and  _177
REMARK   76  A    between atoms: _180  and  _182
REMARK   77  A    between atoms: _182  and  _183
REMARK   78  A    between atoms: _182  and  _185
REMARK   79  A    between atoms: _185  and  _186
REMARK   80  A    between atoms: _189  and  _191
REMARK   81  A    between atoms: _191  and  _192
REMARK   82  A    between atoms: _191  and  _194
REMARK   83  A    between atoms: _194  and  _195
REMARK   84  A    between atoms: _195  and  _196
REMARK   85  A    between atoms: _198  and  _200
REMARK   86  A    between atoms: _200  and  _201
REMARK   87  A    between atoms: _200  and  _203
REMARK   88  A    between atoms: _203  and  _204
REMARK   89  A    between atoms: _207  and  _209
REMARK   90  A    between atoms: _209  and  _210
REMARK   91  A    between atoms: _209  and  _212
REMARK   92  A    between atoms: _212  and  _213
REMARK   93  A    between atoms: _219  and  _221
REMARK   94  A    between atoms: _221  and  _222
REMARK   95  A    between atoms: _221  and  _224
REMARK   96  A    between atoms: _224  and  _225
REMARK   97  A    between atoms: _228  and  _230
REMARK   98  A    between atoms: _230  and  _231
REMARK   99  A    between atoms: _234  and  _236
REMARK  100  A    between atoms: _236  and  _237
REMARK  101  A    between atoms: _236  and  _239
REMARK  102  A    between atoms: _239  and  _240
REMARK  103  A    between atoms: _243  and  _245
REMARK  104  A    between atoms: _245  and  _246
REMARK  105  A    between atoms: _250  and  _251
REMARK  106  A    between atoms: _256  and  _258
REMARK  107  A    between atoms: _258  and  _259
REMARK  108  A    between atoms: _258  and  _261
REMARK  109  A    between atoms: _261  and  _262
REMARK  110  A    between atoms: _265  and  _267
REMARK  111  A    between atoms: _267  and  _268
REMARK  112  A    between atoms: _267  and  _270
REMARK  113  A    between atoms: _270  and  _271
REMARK  114  A    between atoms: _277  and  _279
REMARK  115  A    between atoms: _279  and  _280
REMARK  116  A    between atoms: _284  and  _285
REMARK  117  A    between atoms: _290  and  _292
REMARK  118  A    between atoms: _292  and  _293
REMARK  119  A    between atoms: _292  and  _295
REMARK  120  A    between atoms: _295  and  _296
REMARK  121  A    between atoms: _299  and  _301
REMARK  122  A    between atoms: _301  and  _302
REMARK  123  A    between atoms: _301  and  _304
REMARK  124  A    between atoms: _304  and  _305
REMARK  125  A    between atoms: _310  and  _311
REMARK                            x       y       z     vdW  Elec       q    Type
REMARK                         _______ _______ _______ _____ _____    ______ ____
ROOT
ATOM      1  CA  THR A   1      -0.793   2.173  -8.274  0.00  0.00    +0.160 C 
ENDROOT
BRANCH   1   2
ATOM      2  N   THR A   1       0.372   3.064  -8.252  0.00  0.00    -0.237 NA
ATOM      3  H   THR A   1       1.283   2.709  -7.896  0.00  0.00    +0.142 HD
ENDBRANCH   1   2
BRANCH   1   4
ATOM      4  C   THR A   1      -1.120   1.742  -6.838  0.00  0.00    +0.227 C 
ATOM      5  O   THR A   1      -1.998   2.317  -6.182  0.00  0.00    -0.287 OA
ENDBRANCH   1   4
BRANCH   1   6
ATOM      6  CB  THR A   1      -0.599   0.973  -9.252  0.00  0.00    +0.134 C 
ATOM      7  CG2 THR A   1      -0.490   1.477 -10.675  0.00  0.00    +0.034 C 
BRANCH   6   8
ATOM      8  OG1 THR A   1       0.571   0.208  -8.929  0.00  0.00    -0.383 OA
ATOM      9  HG1 THR A   1       1.370   0.789  -8.986  0.00  0.00    +0.210 HD
ENDBRANCH   6   8
ENDBRANCH   1   6
TORSDOF 4
REMARK  Name = ../refined-set-2016/4jpx/4jpx_pocket.pdb
REMARK  125 active torsions:
REMARK  status: ('A' for Active; 'I' for Inactive)
REMARK    1  A    between atoms: _1  and  _3
REMARK    2  A    between atoms: _3  and  _4
REMARK    3  A    between atoms: _3  and  _6
REMARK    4  A    between atoms: _6  and  _7
REMARK    5  A    between atoms: _13  and  _15
REMARK    6  A    between atoms: _15  and  _16
REMARK    7  A    between atoms: _15  and  _18
REMARK    8  A    between atoms: _18  and  _19
REMARK    9  A    between atoms: _22  and  _24
REMARK   10  A    between atoms: _24  and  _25
REMARK   11  A    between atoms: _24  and  _27
REMARK   12  A    between atoms: _27  and  _28
REMARK   13  A    between atoms: _33  and  _34
REMARK   14  A    between atoms: _36  and  _38
REMARK   15  A    between atoms: _38  and  _39
REMARK   16  A    between atoms: _38  and  _41
REMARK   17  A    between atoms: _41  and  _42
REMARK   18  A    between atoms: _45  and  _47
REMARK   19  A    between atoms: _47  and  _48
REMARK   20  A    between atoms: _47  and  _50
REMARK   21  A    between atoms: _50  and  _51
REMARK   22  A    between atoms: _51  and  _52
REMARK   23  A    between atoms: _55  and  _57
REMARK   24  A    between atoms: _57  and  _58
REMARK   25  A    between atoms: _61  and  _63
REMARK   26  A    between atoms: _63  and  _64
REMARK   27  A    between atoms: _63  and  _66
REMARK   28  A    between atoms: _66  and  _67
REMARK   29  A    between atoms: _72  and  _73
REMARK   30  A    between atoms: _75  and  _77
REMARK   31  A    between atoms: _77  and  _78
REMARK   32  A    between atoms: _80  and  _82
REMARK   33  A    between atoms: _82  and  _83
REMARK   34  A    between atoms: _82  and  _85
REMARK   35  A    between atoms: _85  and  _86
REMARK   36  A    between atoms: _86  and  _87
REMARK   37  A    between atoms: _87  and  _88
REMARK   38  A    between atoms: _88  and  _89
REMARK   39  A    between atoms: _93  and  _95
REMARK   40  A    between atoms: _95  and  _96
REMARK   41  A    between atoms: _98  and  _100
REMARK   42  A    between atoms: _100  and  _101
REMARK   43  A    between atoms: _103  and  _105
REMARK   44  A    between atoms: _105  and  _106
REMARK   45  A    between atoms: _105  and  _108
REMARK   46  A    between atoms: _111  and  _113
REMARK   47  A    between atoms: _113  and  _114
REMARK   48  A    between atoms: _113  and  _116
REMARK   49  A    between atoms: _116  and  _117
REMARK   50  A    between atoms: _117  and  _118
REMARK   51  A    between atoms: _118  and  _119
REMARK   52  A    between atoms: _119  and  _120
REMARK   53  A    between atoms: _124  and  _126
REMARK   54  A    between atoms: _126  and  _127
REMARK   55  A    between atoms: _130  and  _132
REMARK   56  A    between atoms: _132  and  _133
REMARK   57  A    between atoms: _132  and  _135
REMARK   58  A    between atoms: _135  and  _136
REMARK   59  A    between atoms: _139  and  _141
REMARK   60  A    between atoms: _141  and  _142
REMARK   61  A    between atoms: _141  and  _144
REMARK   62  A    between atoms: _144  and  _145
REMARK   63  A    between atoms: _148  and  _150
REMARK   64  A    between atoms: _150  and  _151
REMARK   65  A    between atoms: _150  and  _153
REMARK   66  A    between atoms: _153  and  _154
REMARK   67  A    between atoms: _157  and  _159
REMARK   68  A    between atoms: _159  and  _160
REMARK   69  A    between atoms: _159  and  _162
REMARK   70  A    between atoms: _162  and  _163
REMARK   71  A    between atoms: _168  and  _169
REMARK   72  A    between atoms: _171  and  _173
REMARK   73  A    between atoms: _173  and  _174
REMARK   74  A    between atoms: _173  and  _176
REMARK   75  A    between atoms: _176  and  _177
REMARK   76  A    between atoms: _180  and  _182
REMARK   77  A    between atoms: _182  and  _183
REMARK   78  A    between atoms: _182  and  _185
REMARK   79  A    between atoms: _185  and  _186
REMARK   80  A    between atoms: _189  and  _191
REMARK   81  A    between atoms: _191  and  _192
REMARK   82  A    between atoms: _191  and  _194
REMARK   83  A    between atoms: _194  and  _195
REMARK   84  A    between atoms: _195  and  _196
REMARK   85  A    between atoms: _198  and  _200
REMARK   86  A    between atoms: _200  and  _201
REMARK   87  A    between atoms: _200  and  _203
REMARK   88  A    between atoms: _203  and  _204
REMARK   89  A    between atoms: _207  and  _209
REMARK   90  A    between atoms: _209  and  _210
REMARK   91  A    between atoms: _209  and  _212
REMARK   92  A    between atoms: _212  and  _213
REMARK   93  A    between atoms: _219  and  _221
REMARK   94  A    between atoms: _221  and  _222
REMARK   95  A    between atoms: _221  and  _224
REMARK   96  A    between atoms: _224  and  _225
REMARK   97  A    between atoms: _228  and  _230
REMARK   98  A    between atoms: _230  and  _231
REMARK   99  A    between atoms: _234  and  _236
REMARK  100  A    between atoms: _236  and  _237
REMARK  101  A    between atoms: _236  and  _239
REMARK  102  A    between atoms: _239  and  _240
REMARK  103  A    between atoms: _243  and  _245
REMARK  104  A    between atoms: _245  and  _246
REMARK  105  A    between atoms: _250  and  _251
REMARK  106  A    between atoms: _256  and  _258
REMARK  107  A    between atoms: _258  and  _259
REMARK  108  A    between atoms: _258  and  _261
REMARK  109  A    between atoms: _261  and  _262
REMARK  110  A    between atoms: _265  and  _267
REMARK  111  A    between atoms: _267  and  _268
REMARK  112  A    between atoms: _267  and  _270
REMARK  113  A    between atoms: _270  and  _271
REMARK  114  A    between atoms: _277  and  _279
REMARK  115  A    between atoms: _279  and  _280
REMARK  116  A    between atoms: _284  and  _285
REMARK  117  A    between atoms: _290  and  _292
REMARK  118  A    between atoms: _292  and  _293
REMARK  119  A    between atoms: _292  and  _295
REMARK  120  A    between atoms: _295  and  _296
REMARK  121  A    between atoms: _299  and  _301
REMARK  122  A    between atoms: _301  and  _302
REMARK  123  A    between atoms: _301  and  _304
REMARK  124  A    between atoms: _304  and  _305
REMARK  125  A    between atoms: _310  and  _311
REMARK                            x       y       z     vdW  Elec       q    Type
REMARK                         _______ _______ _______ _____ _____    ______ ____
ROOT
ATOM      1  CA  LEU A   1       2.388   2.104 -18.109  0.00  0.00    +0.133 C 
ENDROOT
BRANCH   1   2
ATOM      2  N   LEU A   1       1.281   2.854 -18.707  0.00  0.00    -0.239 NA
ATOM      3  H   LEU A   1       0.692   2.396 -19.432  0.00  0.00    +0.142 HD
ENDBRANCH   1   2
BRANCH   1   4
ATOM      4  C   LEU A   1       3.737   2.789 -18.304  0.00  0.00    +0.224 C 
ATOM      5  O   LEU A   1       4.479   2.989 -17.339  0.00  0.00    -0.287 OA
ENDBRANCH   1   4
BRANCH   1   6
ATOM      6  CB  LEU A   1       2.447   0.679 -18.673  0.00  0.00    +0.025 C 
BRANCH   6   7
ATOM      7  CG  LEU A   1       3.665  -0.152 -18.238  0.00  0.00    +0.002 C 
ATOM      8  CD2 LEU A   1       3.737  -0.299 -16.721  0.00  0.00    +0.000 C 
ATOM      9  CD1 LEU A   1       3.681  -1.512 -18.923  0.00  0.00    +0.000 C 
ENDBRANCH   6   7
ENDBRANCH   1   6
TORSDOF 4
REMARK  Name = ../refined-set-2016/4jpx/4jpx_pocket.pdb
REMARK  125 active torsions:
REMARK  status: ('A' for Active; 'I' for Inactive)
REMARK    1  A    between atoms: _1  and  _3
REMARK    2  A    between atoms: _3  and  _4
REMARK    3  A    between atoms: _3  and  _6
REMARK    4  A    between atoms: _6  and  _7
REMARK    5  A    between atoms: _13  and  _15
REMARK    6  A    between atoms: _15  and  _16
REMARK    7  A    between atoms: _15  and  _18
REMARK    8  A    between atoms: _18  and  _19
REMARK    9  A    between atoms: _22  and  _24
REMARK   10  A    between atoms: _24  and  _25
REMARK   11  A    between atoms: _24  and  _27
REMARK   12  A    between atoms: _27  and  _28
REMARK   13  A    between atoms: _33  and  _34
REMARK   14  A    between atoms: _36  and  _38
REMARK   15  A    between atoms: _38  and  _39
REMARK   16  A    between atoms: _38  and  _41
REMARK   17  A    between atoms: _41  and  _42
REMARK   18  A    between atoms: _45  and  _47
REMARK   19  A    between atoms: _47  and  _48
REMARK   20  A    between atoms: _47  and  _50
REMARK   21  A    between atoms: _50  and  _51
REMARK   22  A    between atoms: _51  and  _52
REMARK   23  A    between atoms: _55  and  _57
REMARK   24  A    between atoms: _57  and  _58
REMARK   25  A    between atoms: _61  and  _63
REMARK   26  A    between atoms: _63  and  _64
REMARK   27  A    between atoms: _63  and  _66
REMARK   28  A    between atoms: _66  and  _67
REMARK   29  A    between atoms: _72  and  _73
REMARK   30  A    between atoms: _75  and  _77
REMARK   31  A    between atoms: _77  and  _78
REMARK   32  A    between atoms: _80  and  _82
REMARK   33  A    between atoms: _82  and  _83
REMARK   34  A    between atoms: _82  and  _85
REMARK   35  A    between atoms: _85  and  _86
REMARK   36  A    between atoms: _86  and  _87
REMARK   37  A    between atoms: _87  and  _88
REMARK   38  A    between atoms: _88  and  _89
REMARK   39  A    between atoms: _93  and  _95
REMARK   40  A    between atoms: _95  and  _96
REMARK   41  A    between atoms: _98  and  _100
REMARK   42  A    between atoms: _100  and  _101
REMARK   43  A    between atoms: _103  and  _105
REMARK   44  A    between atoms: _105  and  _106
REMARK   45  A    between atoms: _105  and  _108
REMARK   46  A    between atoms: _111  and  _113
REMARK   47  A    between atoms: _113  and  _114
REMARK   48  A    between atoms: _113  and  _116
REMARK   49  A    between atoms: _116  and  _117
REMARK   50  A    between atoms: _117  and  _118
REMARK   51  A    between atoms: _118  and  _119
REMARK   52  A    between atoms: _119  and  _120
REMARK   53  A    between atoms: _124  and  _126
REMARK   54  A    between atoms: _126  and  _127
REMARK   55  A    between atoms: _130  and  _132
REMARK   56  A    between atoms: _132  and  _133
REMARK   57  A    between atoms: _132  and  _135
REMARK   58  A    between atoms: _135  and  _136
REMARK   59  A    between atoms: _139  and  _141
REMARK   60  A    between atoms: _141  and  _142
REMARK   61  A    between atoms: _141  and  _144
REMARK   62  A    between atoms: _144  and  _145
REMARK   63  A    between atoms: _148  and  _150
REMARK   64  A    between atoms: _150  and  _151
REMARK   65  A    between atoms: _150  and  _153
REMARK   66  A    between atoms: _153  and  _154
REMARK   67  A    between atoms: _157  and  _159
REMARK   68  A    between atoms: _159  and  _160
REMARK   69  A    between atoms: _159  and  _162
REMARK   70  A    between atoms: _162  and  _163
REMARK   71  A    between atoms: _168  and  _169
REMARK   72  A    between atoms: _171  and  _173
REMARK   73  A    between atoms: _173  and  _174
REMARK   74  A    between atoms: _173  and  _176
REMARK   75  A    between atoms: _176  and  _177
REMARK   76  A    between atoms: _180  and  _182
REMARK   77  A    between atoms: _182  and  _183
REMARK   78  A    between atoms: _182  and  _185
REMARK   79  A    between atoms: _185  and  _186
REMARK   80  A    between atoms: _189  and  _191
REMARK   81  A    between atoms: _191  and  _192
REMARK   82  A    between atoms: _191  and  _194
REMARK   83  A    between atoms: _194  and  _195
REMARK   84  A    between atoms: _195  and  _196
REMARK   85  A    between atoms: _198  and  _200
REMARK   86  A    between atoms: _200  and  _201
REMARK   87  A    between atoms: _200  and  _203
REMARK   88  A    between atoms: _203  and  _204
REMARK   89  A    between atoms: _207  and  _209
REMARK   90  A    between atoms: _209  and  _210
REMARK   91  A    between atoms: _209  and  _212
REMARK   92  A    between atoms: _212  and  _213
REMARK   93  A    between atoms: _219  and  _221
REMARK   94  A    between atoms: _221  and  _222
REMARK   95  A    between atoms: _221  and  _224
REMARK   96  A    between atoms: _224  and  _225
REMARK   97  A    between atoms: _228  and  _230
REMARK   98  A    between atoms: _230  and  _231
REMARK   99  A    between atoms: _234  and  _236
REMARK  100  A    between atoms: _236  and  _237
REMARK  101  A    between atoms: _236  and  _239
REMARK  102  A    between atoms: _239  and  _240
REMARK  103  A    between atoms: _243  and  _245
REMARK  104  A    between atoms: _245  and  _246
REMARK  105  A    between atoms: _250  and  _251
REMARK  106  A    between atoms: _256  and  _258
REMARK  107  A    between atoms: _258  and  _259
REMARK  108  A    between atoms: _258  and  _261
REMARK  109  A    between atoms: _261  and  _262
REMARK  110  A    between atoms: _265  and  _267
REMARK  111  A    between atoms: _267  and  _268
REMARK  112  A    between atoms: _267  and  _270
REMARK  113  A    between atoms: _270  and  _271
REMARK  114  A    between atoms: _277  and  _279
REMARK  115  A    between atoms: _279  and  _280
REMARK  116  A    between atoms: _284  and  _285
REMARK  117  A    between atoms: _290  and  _292
REMARK  118  A    between atoms: _292  and  _293
REMARK  119  A    between atoms: _292  and  _295
REMARK  120  A    between atoms: _295  and  _296
REMARK  121  A    between atoms: _299  and  _301
REMARK  122  A    between atoms: _301  and  _302
REMARK  123  A    between atoms: _301  and  _304
REMARK  124  A    between atoms: _304  and  _305
REMARK  125  A    between atoms: _310  and  _311
REMARK                            x       y       z     vdW  Elec       q    Type
REMARK                         _______ _______ _______ _____ _____    ______ ____
ROOT
ATOM      1  CA  MET A   1       7.531   4.049 -15.057  0.00  0.00    +0.134 C 
ENDROOT
BRANCH   1   2
ATOM      2  N   MET A   1       6.195   4.563 -15.377  0.00  0.00    -0.239 NA
ATOM      3  H   MET A   1       5.674   4.187 -16.195  0.00  0.00    +0.142 HD
ENDBRANCH   1   2
BRANCH   1   4
ATOM      4  C   MET A   1       8.619   5.076 -15.368  0.00  0.00    +0.224 C 
ATOM      5  O   MET A   1       9.758   4.916 -14.945  0.00  0.00    -0.287 OA
ENDBRANCH   1   4
BRANCH   1   6
ATOM      6  CB  MET A   1       7.799   2.705 -15.745  0.00  0.00    +0.037 C 
BRANCH   6   7
ATOM      7  CG  MET A   1       6.952   1.587 -15.152  0.00  0.00    +0.059 C 
BRANCH   7   8
ATOM      8  SD  MET A   1       7.577  -0.083 -15.416  0.00  0.00    -0.139 S 
ATOM      9  CE  MET A   1       7.484  -0.235 -17.198  0.00  0.00    +0.069 C 
ENDBRANCH   7   8
ENDBRANCH   6   7
ENDBRANCH   1   6
TORSDOF 5
REMARK  Name = ../refined-set-2016/4jpx/4jpx_pocket.pdb
REMARK  125 active torsions:
REMARK  status: ('A' for Active; 'I' for Inactive)
REMARK    1  A    between atoms: _1  and  _3
REMARK    2  A    between atoms: _3  and  _4
REMARK    3  A    between atoms: _3  and  _6
REMARK    4  A    between atoms: _6  and  _7
REMARK    5  A    between atoms: _13  and  _15
REMARK    6  A    between atoms: _15  and  _16
REMARK    7  A    between atoms: _15  and  _18
REMARK    8  A    between atoms: _18  and  _19
REMARK    9  A    between atoms: _22  and  _24
REMARK   10  A    between atoms: _24  and  _25
REMARK   11  A    between atoms: _24  and  _27
REMARK   12  A    between atoms: _27  and  _28
REMARK   13  A    between atoms: _33  and  _34
REMARK   14  A    between atoms: _36  and  _38
REMARK   15  A    between atoms: _38  and  _39
REMARK   16  A    between atoms: _38  and  _41
REMARK   17  A    between atoms: _41  and  _42
REMARK   18  A    between atoms: _45  and  _47
REMARK   19  A    between atoms: _47  and  _48
REMARK   20  A    between atoms: _47  and  _50
REMARK   21  A    between atoms: _50  and  _51
REMARK   22  A    between atoms: _51  and  _52
REMARK   23  A    between atoms: _55  and  _57
REMARK   24  A    between atoms: _57  and  _58
REMARK   25  A    between atoms: _61  and  _63
REMARK   26  A    between atoms: _63  and  _64
REMARK   27  A    between atoms: _63  and  _66
REMARK   28  A    between atoms: _66  and  _67
REMARK   29  A    between atoms: _72  and  _73
REMARK   30  A    between atoms: _75  and  _77
REMARK   31  A    between atoms: _77  and  _78
REMARK   32  A    between atoms: _80  and  _82
REMARK   33  A    between atoms: _82  and  _83
REMARK   34  A    between atoms: _82  and  _85
REMARK   35  A    between atoms: _85  and  _86
REMARK   36  A    between atoms: _86  and  _87
REMARK   37  A    between atoms: _87  and  _88
REMARK   38  A    between atoms: _88  and  _89
REMARK   39  A    between atoms: _93  and  _95
REMARK   40  A    between atoms: _95  and  _96
REMARK   41  A    between atoms: _98  and  _100
REMARK   42  A    between atoms: _100  and  _101
REMARK   43  A    between atoms: _103  and  _105
REMARK   44  A    between atoms: _105  and  _106
REMARK   45  A    between atoms: _105  and  _108
REMARK   46  A    between atoms: _111  and  _113
REMARK   47  A    between atoms: _113  and  _114
REMARK   48  A    between atoms: _113  and  _116
REMARK   49  A    between atoms: _116  and  _117
REMARK   50  A    between atoms: _117  and  _118
REMARK   51  A    between atoms: _118  and  _119
REMARK   52  A    between atoms: _119  and  _120
REMARK   53  A    between atoms: _124  and  _126
REMARK   54  A    between atoms: _126  and  _127
REMARK   55  A    between atoms: _130  and  _132
REMARK   56  A    between atoms: _132  and  _133
REMARK   57  A    between atoms: _132  and  _135
REMARK   58  A    between atoms: _135  and  _136
REMARK   59  A    between atoms: _139  and  _141
REMARK   60  A    between atoms: _141  and  _142
REMARK   61  A    between atoms: _141  and  _144
REMARK   62  A    between atoms: _144  and  _145
REMARK   63  A    between atoms: _148  and  _150
REMARK   64  A    between atoms: _150  and  _151
REMARK   65  A    between atoms: _150  and  _153
REMARK   66  A    between atoms: _153  and  _154
REMARK   67  A    between atoms: _157  and  _159
REMARK   68  A    between atoms: _159  and  _160
REMARK   69  A    between atoms: _159  and  _162
REMARK   70  A    between atoms: _162  and  _163
REMARK   71  A    between atoms: _168  and  _169
REMARK   72  A    between atoms: _171  and  _173
REMARK   73  A    between atoms: _173  and  _174
REMARK   74  A    between atoms: _173  and  _176
REMARK   75  A    between atoms: _176  and  _177
REMARK   76  A    between atoms: _180  and  _182
REMARK   77  A    between atoms: _182  and  _183
REMARK   78  A    between atoms: _182  and  _185
REMARK   79  A    between atoms: _185  and  _186
REMARK   80  A    between atoms: _189  and  _191
REMARK   81  A    between atoms: _191  and  _192
REMARK   82  A    between atoms: _191  and  _194
REMARK   83  A    between atoms: _194  and  _195
REMARK   84  A    between atoms: _195  and  _196
REMARK   85  A    between atoms: _198  and  _200
REMARK   86  A    between atoms: _200  and  _201
REMARK   87  A    between atoms: _200  and  _203
REMARK   88  A    between atoms: _203  and  _204
REMARK   89  A    between atoms: _207  and  _209
REMARK   90  A    between atoms: _209  and  _210
REMARK   91  A    between atoms: _209  and  _212
REMARK   92  A    between atoms: _212  and  _213
REMARK   93  A    between atoms: _219  and  _221
REMARK   94  A    between atoms: _221  and  _222
REMARK   95  A    between atoms: _221  and  _224
REMARK   96  A    between atoms: _224  and  _225
REMARK   97  A    between atoms: _228  and  _230
REMARK   98  A    between atoms: _230  and  _231
REMARK   99  A    between atoms: _234  and  _236
REMARK  100  A    between atoms: _236  and  _237
REMARK  101  A    between atoms: _236  and  _239
REMARK  102  A    between atoms: _239  and  _240
REMARK  103  A    between atoms: _243  and  _245
REMARK  104  A    between atoms: _245  and  _246
REMARK  105  A    between atoms: _250  and  _251
REMARK  106  A    between atoms: _256  and  _258
REMARK  107  A    between atoms: _258  and  _259
REMARK  108  A    between atoms: _258  and  _261
REMARK  109  A    between atoms: _261  and  _262
REMARK  110  A    between atoms: _265  and  _267
REMARK  111  A    between atoms: _267  and  _268
REMARK  112  A    between atoms: _267  and  _270
REMARK  113  A    between atoms: _270  and  _271
REMARK  114  A    between atoms: _277  and  _279
REMARK  115  A    between atoms: _279  and  _280
REMARK  116  A    between atoms: _284  and  _285
REMARK  117  A    between atoms: _290  and  _292
REMARK  118  A    between atoms: _292  and  _293
REMARK  119  A    between atoms: _292  and  _295
REMARK  120  A    between atoms: _295  and  _296
REMARK  121  A    between atoms: _299  and  _301
REMARK  122  A    between atoms: _301  and  _302
REMARK  123  A    between atoms: _301  and  _304
REMARK  124  A    between atoms: _304  and  _305
REMARK  125  A    between atoms: _310  and  _311
REMARK                            x       y       z     vdW  Elec       q    Type
REMARK                         _______ _______ _______ _____ _____    ______ ____
ROOT
ATOM      1  C   PRO A   7       4.981  -7.730 -20.763  0.00  0.00    +0.241 C 
ATOM      2  O   PRO A   7       5.196  -7.363 -19.612  0.00  0.00    -0.273 OA
ATOM      3  N   ASP A   8       5.936  -8.121 -21.604  0.00  0.00    -0.297 N 
ATOM      4  H   ASP A   8       5.652  -8.421 -22.558  0.00  0.00    +0.150 HD
ENDROOT
BRANCH   1  11
ATOM      5  C   ALA A   6       2.316  -8.562 -19.375  0.00  0.00    +0.244 C 
ATOM      6  O   ALA A   6       3.001  -9.592 -19.355  0.00  0.00    -0.273 OA
ATOM      7  N   PRO A   7       2.484  -7.612 -20.320  0.00  0.00    -0.272 N 
ATOM      8  CD  PRO A   7       1.594  -6.479 -20.639  0.00  0.00    +0.094 C 
ATOM      9  CG  PRO A   7       1.889  -6.208 -22.079  0.00  0.00    +0.024 C 
ATOM     10  CB  PRO A   7       3.326  -6.549 -22.238  0.00  0.00    +0.031 C 
ATOM     11  CA  PRO A   7       3.547  -7.755 -21.321  0.00  0.00    +0.152 C 
BRANCH   5  12
ATOM     12  CA  ALA A   6       1.216  -8.350 -18.296  0.00  0.00    +0.149 C 
ATOM     13  CB  ALA A   6      -0.049  -9.114 -18.683  0.00  0.00    +0.031 C 
BRANCH  12  16
ATOM     14  C   THR A   5       1.611  -6.219 -17.123  0.00  0.00    +0.243 C 
ATOM     15  O   THR A   5       2.644  -6.641 -16.618  0.00  0.00    -0.273 OA
ATOM     16  N   ALA A   6       0.874  -6.954 -17.963  0.00  0.00    -0.297 N 
ATOM     17  H   ALA A   6       0.031  -6.527 -18.396  0.00  0.00    +0.150 HD
BRANCH  14  18
ATOM     18  CA  THR A   5       1.146  -4.781 -16.829  0.00  0.00    +0.176 C 
BRANCH  18  20
ATOM     19  C   ALA A   4      -0.314  -3.726 -18.472  0.00  0.00    +0.241 C 
ATOM     20  N   THR A   5      -0.169  -4.461 -17.375  0.00  0.00    -0.295 N 
ATOM     21  H   THR A   5      -1.017  -4.819 -16.891  0.00  0.00    +0.150 HD
ATOM     22  O   ALA A   4       0.638  -3.281 -19.114  0.00  0.00    -0.273 OA
BRANCH  19  23
ATOM     23  CA  ALA A   4      -1.744  -3.443 -18.922  0.00  0.00    +0.149 C 
ATOM     24  CB  ALA A   4      -2.165  -2.056 -18.466  0.00  0.00    +0.031 C 
BRANCH  23  26
ATOM     25  C   ASP A   3      -2.640  -5.716 -18.856  0.00  0.00    +0.241 C 
ATOM     26  N   ALA A   4      -2.687  -4.451 -18.438  0.00  0.00    -0.297 N 
ATOM     27  H   ALA A   4      -3.414  -4.173 -17.749  0.00  0.00    +0.150 HD
ATOM     28  O   ASP A   3      -1.783  -6.135 -19.633  0.00  0.00    -0.273 OA
BRANCH  25  29
ATOM     29  CA  ASP A   3      -3.710  -6.663 -18.313  0.00  0.00    +0.160 C 
BRANCH  29  32
ATOM     30  C   PHE A   2      -3.061  -6.664 -15.987  0.00  0.00    +0.241 C 
ATOM     31  O   PHE A   2      -1.932  -7.029 -16.296  0.00  0.00    -0.273 OA
ATOM     32  N   ASP A   3      -3.998  -6.454 -16.896  0.00  0.00    -0.297 N 
ATOM     33  H   ASP A   3      -4.944  -6.139 -16.601  0.00  0.00    +0.150 HD
BRANCH  30  34
ATOM     34  CA  PHE A   2      -3.458  -6.441 -14.520  0.00  0.00    +0.153 C 
BRANCH  34  36
ATOM     35  C   LEU A   1      -3.497  -4.005 -14.606  0.00  0.00    +0.238 C 
ATOM     36  N   PHE A   2      -4.136  -5.150 -14.354  0.00  0.00    -0.297 N 
ATOM     37  H   PHE A   2      -5.126  -5.127 -14.036  0.00  0.00    +0.150 HD
ATOM     38  O   LEU A   1      -2.321  -3.971 -14.977  0.00  0.00    -0.274 OA
BRANCH  35  39
ATOM     39  CA  LEU A   1      -4.297  -2.702 -14.464  0.00  0.00    +0.145 C 
BRANCH  39  40
ATOM     40  N   LEU A   1      -5.625  -2.805 -15.054  0.00  0.00    -0.238 NA
ATOM     41  H   LEU A   1      -6.457  -2.740 -14.433  0.00  0.00    +0.142 HD
ENDBRANCH  39  40
BRANCH  39  42
ATOM     42  CB  LEU A   1      -4.429  -2.294 -12.995  0.00  0.00    +0.026 C 
BRANCH  42  43
ATOM     43  CG  LEU A   1      -3.175  -2.218 -12.139  0.00  0.00    +0.002 C 
ATOM     44  CD2 LEU A   1      -3.591  -1.822 -10.729  0.00  0.00    +0.000 C 
ATOM     45  CD1 LEU A   1      -2.194  -1.219 -12.737  0.00  0.00    +0.000 C 
ENDBRANCH  42  43
ENDBRANCH  39  42
ENDBRANCH  35  39
ENDBRANCH  34  36
BRANCH  34  46
ATOM     46  CB  PHE A   2      -4.328  -7.615 -14.042  0.00  0.00    +0.055 C 
BRANCH  46  47
ATOM     47  CG  PHE A   2      -3.644  -8.946 -14.171  0.00  0.00    -0.020 A 
ATOM     48  CD2 PHE A   2      -2.851  -9.431 -13.145  0.00  0.00    -0.004 A 
ATOM     49  CE2 PHE A   2      -2.201 -10.643 -13.266  0.00  0.00    -0.000 A 
ATOM     50  CZ  PHE A   2      -2.310 -11.376 -14.432  0.00  0.00    -0.000 A 
ATOM     51  CE1 PHE A   2      -3.080 -10.896 -15.474  0.00  0.00    -0.000 A 
ATOM     52  CD1 PHE A   2      -3.736  -9.685 -15.345  0.00  0.00    -0.004 A 
ENDBRANCH  46  47
ENDBRANCH  34  46
ENDBRANCH  30  34
ENDBRANCH  29  32
BRANCH  29  53
ATOM     53  CB  ASP A   3      -4.980  -6.535 -19.145  0.00  0.00    +0.143 C 
BRANCH  53  54
ATOM     54  CG  ASP A   3      -5.947  -7.663 -18.903  0.00  0.00    +0.367 C 
ATOM     55  OD2 ASP A   3      -5.561  -8.698 -18.313  0.00  0.00    -0.246 OA
ATOM     56  OD1 ASP A   3      -7.106  -7.511 -19.320  0.00  0.00    -0.246 OA
ENDBRANCH  53  54
ENDBRANCH  29  53
ENDBRANCH  25  29
ENDBRANCH  23  26
ENDBRANCH  19  23
ENDBRANCH  18  20
BRANCH  18  57
ATOM     57  CB  THR A   5       1.186  -4.498 -15.305  0.00  0.00    +0.137 C 
ATOM     58  CG2 THR A   5       0.923  -3.001 -15.038  0.00  0.00    +0.034 C 
BRANCH  57  59
ATOM     59  OG1 THR A   5       0.211  -5.300 -14.619  0.00  0.00    -0.382 OA
ATOM     60  HG1 THR A   5       0.405  -6.258 -14.774  0.00  0.00    +0.210 HD
ENDBRANCH  57  59
ENDBRANCH  18  57
ENDBRANCH  14  18
ENDBRANCH  12  16
ENDBRANCH   5  12
ENDBRANCH   1  11
BRANCH   3  61
ATOM     61  CA  ASP A   8       7.367  -8.156 -21.269  0.00  0.00    +0.160 C 
BRANCH  61  62
ATOM     62  C   ASP A   8       7.914  -6.745 -21.038  0.00  0.00    +0.241 C 
ATOM     63  N   PHE A   9       8.395  -6.482 -19.826  0.00  0.00    -0.297 N 
ATOM     64  H   PHE A   9       8.414  -7.231 -19.105  0.00  0.00    +0.150 HD
ATOM     65  O   ASP A   8       7.897  -5.904 -21.938  0.00  0.00    -0.273 OA
BRANCH  63  66
ATOM     66  CA  PHE A   9       8.897  -5.147 -19.499  0.00  0.00    +0.153 C 
BRANCH  66  67
ATOM     67  C   PHE A   9      10.342  -4.909 -19.952  0.00  0.00    +0.241 C 
ATOM     68  O   PHE A   9      10.799  -3.770 -19.925  0.00  0.00    -0.273 OA
ATOM     69  N   ALA A  10      11.062  -5.957 -20.359  0.00  0.00    -0.297 N 
ATOM     70  H   ALA A  10      10.596  -6.877 -20.491  0.00  0.00    +0.150 HD
BRANCH  69  71
ATOM     71  CA  ALA A  10      12.507  -5.831 -20.625  0.00  0.00    +0.149 C 
ATOM     72  CB  ALA A  10      13.108  -7.169 -21.035  0.00  0.00    +0.031 C 
BRANCH  71  73
ATOM     73  C   ALA A  10      12.820  -4.749 -21.663  0.00  0.00    +0.244 C 
ATOM     74  O   ALA A  10      13.649  -3.863 -21.412  0.00  0.00    -0.273 OA
ATOM     75  N   PRO A  11      12.143  -4.786 -22.826  0.00  0.00    -0.272 N 
ATOM     76  CD  PRO A  11      11.165  -5.761 -23.342  0.00  0.00    +0.094 C 
ATOM     77  CG  PRO A  11      10.723  -5.177 -24.645  0.00  0.00    +0.024 C 
ATOM     78  CB  PRO A  11      11.690  -4.131 -25.049  0.00  0.00    +0.031 C 
ATOM     79  CA  PRO A  11      12.413  -3.697 -23.772  0.00  0.00    +0.152 C 
BRANCH  79  80
ATOM     80  C   PRO A  11      11.922  -2.324 -23.308  0.00  0.00    +0.241 C 
ATOM     81  N   LEU A  12      10.970  -2.296 -22.379  0.00  0.00    -0.297 N 
ATOM     82  H   LEU A  12      10.579  -3.191 -22.023  0.00  0.00    +0.150 HD
ATOM     83  O   PRO A  11      12.414  -1.306 -23.786  0.00  0.00    -0.273 OA
BRANCH  81  84
ATOM     84  CA  LEU A  12      10.465  -1.034 -21.851  0.00  0.00    +0.149 C 
BRANCH  84  85
ATOM     85  C   LEU A  12      11.519  -0.434 -20.914  0.00  0.00    +0.241 C 
ATOM     86  N   TYR A  13      12.091  -1.278 -20.059  0.00  0.00    -0.298 N 
ATOM     87  H   TYR A  13      11.768  -2.266 -20.036  0.00  0.00    +0.150 HD
ATOM     88  O   LEU A  12      11.799   0.760 -20.970  0.00  0.00    -0.273 OA
BRANCH  86  89
ATOM     89  CA  TYR A  13      13.160  -0.862 -19.149  0.00  0.00    +0.141 C 
BRANCH  89  90
ATOM     90  C   TYR A  13      14.340  -0.243 -19.888  0.00  0.00    +0.227 C 
ATOM     91  O   TYR A  13      14.820   0.828 -19.505  0.00  0.00    -0.286 OA
ENDBRANCH  89  90
BRANCH  89  92
ATOM     92  CB  TYR A  13      13.667  -2.039 -18.318  0.00  0.00    +0.054 C 
BRANCH  92  93
ATOM     93  CG  TYR A  13      12.699  -2.612 -17.299  0.00  0.00    -0.020 A 
ATOM     94  CD2 TYR A  13      11.786  -1.809 -16.610  0.00  0.00    -0.001 A 
ATOM     95  CE2 TYR A  13      10.925  -2.349 -15.666  0.00  0.00    +0.036 A 
ATOM     96  CZ  TYR A  13      10.979  -3.707 -15.392  0.00  0.00    +0.134 A 
ATOM     97  CE1 TYR A  13      11.882  -4.510 -16.053  0.00  0.00    +0.036 A 
ATOM     98  CD1 TYR A  13      12.733  -3.960 -16.993  0.00  0.00    -0.001 A 
BRANCH  96  99
ATOM     99  OH  TYR A  13      10.153  -4.290 -14.452  0.00  0.00    -0.506 OA
ATOM    100  HH  TYR A  13       9.603  -4.990 -14.886  0.00  0.00    +0.292 HD
ENDBRANCH  96  99
ENDBRANCH  92  93
ENDBRANCH  89  92
ENDBRANCH  86  89
ENDBRANCH  84  85
BRANCH  84 101
ATOM    101  CB  LEU A  12       9.131  -1.242 -21.126  0.00  0.00    +0.029 C 
BRANCH 101 102
ATOM    102  CG  LEU A  12       8.071  -2.040 -21.909  0.00  0.00    +0.002 C 
ATOM    103  CD2 LEU A  12       6.777  -2.141 -21.113  0.00  0.00    +0.000 C 
ATOM    104  CD1 LEU A  12       7.814  -1.467 -23.297  0.00  0.00    +0.000 C 
ENDBRANCH 101 102
ENDBRANCH  84 101
ENDBRANCH  81  84
ENDBRANCH  79  80
ENDBRANCH  71  73
ENDBRANCH  69  71
ENDBRANCH  66  67
BRANCH  66 105
ATOM    105  CB  PHE A   9       8.825  -4.899 -17.989  0.00  0.00    +0.055 C 
BRANCH 105 106
ATOM    106  CG  PHE A   9       7.450  -4.547 -17.461  0.00  0.00    -0.020 A 
ATOM    107  CD2 PHE A   9       7.333  -3.973 -16.199  0.00  0.00    -0.004 A 
ATOM    108  CE2 PHE A   9       6.100  -3.653 -15.668  0.00  0.00    -0.000 A 
ATOM    109  CZ  PHE A   9       4.943  -3.930 -16.381  0.00  0.00    -0.000 A 
ATOM    110  CE1 PHE A   9       5.033  -4.505 -17.635  0.00  0.00    -0.000 A 
ATOM    111  CD1 PHE A   9       6.277  -4.820 -18.170  0.00  0.00    -0.004 A 
ENDBRANCH 105 106
ENDBRANCH  66 105
ENDBRANCH  63  66
ENDBRANCH  61  62
BRANCH  61 112
ATOM    112  CB  ASP A   8       8.136  -8.865 -22.403  0.00  0.00    +0.143 C 
BRANCH 112 113
ATOM    113  CG  ASP A   8       9.650  -8.894 -22.190  0.00  0.00    +0.367 C 
ATOM    114  OD2 ASP A   8      10.118  -8.702 -21.044  0.00  0.00    -0.246 OA
ATOM    115  OD1 ASP A   8      10.375  -9.123 -23.190  0.00  0.00    -0.246 OA
ENDBRANCH 112 113
ENDBRANCH  61 112
ENDBRANCH   3  61
TORSDOF 41
REMARK  Name = ../refined-set-2016/4jpx/4jpx_pocket.pdb
REMARK  125 active torsions:
REMARK  status: ('A' for Active; 'I' for Inactive)
REMARK    1  A    between atoms: _1  and  _3
REMARK    2  A    between atoms: _3  and  _4
REMARK    3  A    between atoms: _3  and  _6
REMARK    4  A    between atoms: _6  and  _7
REMARK    5  A    between atoms: _13  and  _15
REMARK    6  A    between atoms: _15  and  _16
REMARK    7  A    between atoms: _15  and  _18
REMARK    8  A    between atoms: _18  and  _19
REMARK    9  A    between atoms: _22  and  _24
REMARK   10  A    between atoms: _24  and  _25
REMARK   11  A    between atoms: _24  and  _27
REMARK   12  A    between atoms: _27  and  _28
REMARK   13  A    between atoms: _33  and  _34
REMARK   14  A    between atoms: _36  and  _38
REMARK   15  A    between atoms: _38  and  _39
REMARK   16  A    between atoms: _38  and  _41
REMARK   17  A    between atoms: _41  and  _42
REMARK   18  A    between atoms: _45  and  _47
REMARK   19  A    between atoms: _47  and  _48
REMARK   20  A    between atoms: _47  and  _50
REMARK   21  A    between atoms: _50  and  _51
REMARK   22  A    between atoms: _51  and  _52
REMARK   23  A    between atoms: _55  and  _57
REMARK   24  A    between atoms: _57  and  _58
REMARK   25  A    between atoms: _61  and  _63
REMARK   26  A    between atoms: _63  and  _64
REMARK   27  A    between atoms: _63  and  _66
REMARK   28  A    between atoms: _66  and  _67
REMARK   29  A    between atoms: _72  and  _73
REMARK   30  A    between atoms: _75  and  _77
REMARK   31  A    between atoms: _77  and  _78
REMARK   32  A    between atoms: _80  and  _82
REMARK   33  A    between atoms: _82  and  _83
REMARK   34  A    between atoms: _82  and  _85
REMARK   35  A    between atoms: _85  and  _86
REMARK   36  A    between atoms: _86  and  _87
REMARK   37  A    between atoms: _87  and  _88
REMARK   38  A    between atoms: _88  and  _89
REMARK   39  A    between atoms: _93  and  _95
REMARK   40  A    between atoms: _95  and  _96
REMARK   41  A    between atoms: _98  and  _100
REMARK   42  A    between atoms: _100  and  _101
REMARK   43  A    between atoms: _103  and  _105
REMARK   44  A    between atoms: _105  and  _106
REMARK   45  A    between atoms: _105  and  _108
REMARK   46  A    between atoms: _111  and  _113
REMARK   47  A    between atoms: _113  and  _114
REMARK   48  A    between atoms: _113  and  _116
REMARK   49  A    between atoms: _116  and  _117
REMARK   50  A    between atoms: _117  and  _118
REMARK   51  A    between atoms: _118  and  _119
REMARK   52  A    between atoms: _119  and  _120
REMARK   53  A    between atoms: _124  and  _126
REMARK   54  A    between atoms: _126  and  _127
REMARK   55  A    between atoms: _130  and  _132
REMARK   56  A    between atoms: _132  and  _133
REMARK   57  A    between atoms: _132  and  _135
REMARK   58  A    between atoms: _135  and  _136
REMARK   59  A    between atoms: _139  and  _141
REMARK   60  A    between atoms: _141  and  _142
REMARK   61  A    between atoms: _141  and  _144
REMARK   62  A    between atoms: _144  and  _145
REMARK   63  A    between atoms: _148  and  _150
REMARK   64  A    between atoms: _150  and  _151
REMARK   65  A    between atoms: _150  and  _153
REMARK   66  A    between atoms: _153  and  _154
REMARK   67  A    between atoms: _157  and  _159
REMARK   68  A    between atoms: _159  and  _160
REMARK   69  A    between atoms: _159  and  _162
REMARK   70  A    between atoms: _162  and  _163
REMARK   71  A    between atoms: _168  and  _169
REMARK   72  A    between atoms: _171  and  _173
REMARK   73  A    between atoms: _173  and  _174
REMARK   74  A    between atoms: _173  and  _176
REMARK   75  A    between atoms: _176  and  _177
REMARK   76  A    between atoms: _180  and  _182
REMARK   77  A    between atoms: _182  and  _183
REMARK   78  A    between atoms: _182  and  _185
REMARK   79  A    between atoms: _185  and  _186
REMARK   80  A    between atoms: _189  and  _191
REMARK   81  A    between atoms: _191  and  _192
REMARK   82  A    between atoms: _191  and  _194
REMARK   83  A    between atoms: _194  and  _195
REMARK   84  A    between atoms: _195  and  _196
REMARK   85  A    between atoms: _198  and  _200
REMARK   86  A    between atoms: _200  and  _201
REMARK   87  A    between atoms: _200  and  _203
REMARK   88  A    between atoms: _203  and  _204
REMARK   89  A    between atoms: _207  and  _209
REMARK   90  A    between atoms: _209  and  _210
REMARK   91  A    between atoms: _209  and  _212
REMARK   92  A    between atoms: _212  and  _213
REMARK   93  A    between atoms: _219  and  _221
REMARK   94  A    between atoms: _221  and  _222
REMARK   95  A    between atoms: _221  and  _224
REMARK   96  A    between atoms: _224  and  _225
REMARK   97  A    between atoms: _228  and  _230
REMARK   98  A    between atoms: _230  and  _231
REMARK   99  A    between atoms: _234  and  _236
REMARK  100  A    between atoms: _236  and  _237
REMARK  101  A    between atoms: _236  and  _239
REMARK  102  A    between atoms: _239  and  _240
REMARK  103  A    between atoms: _243  and  _245
REMARK  104  A    between atoms: _245  and  _246
REMARK  105  A    between atoms: _250  and  _251
REMARK  106  A    between atoms: _256  and  _258
REMARK  107  A    between atoms: _258  and  _259
REMARK  108  A    between atoms: _258  and  _261
REMARK  109  A    between atoms: _261  and  _262
REMARK  110  A    between atoms: _265  and  _267
REMARK  111  A    between atoms: _267  and  _268
REMARK  112  A    between atoms: _267  and  _270
REMARK  113  A    between atoms: _270  and  _271
REMARK  114  A    between atoms: _277  and  _279
REMARK  115  A    between atoms: _279  and  _280
REMARK  116  A    between atoms: _284  and  _285
REMARK  117  A    between atoms: _290  and  _292
REMARK  118  A    between atoms: _292  and  _293
REMARK  119  A    between atoms: _292  and  _295
REMARK  120  A    between atoms: _295  and  _296
REMARK  121  A    between atoms: _299  and  _301
REMARK  122  A    between atoms: _301  and  _302
REMARK  123  A    between atoms: _301  and  _304
REMARK  124  A    between atoms: _304  and  _305
REMARK  125  A    between atoms: _310  and  _311
REMARK                            x       y       z     vdW  Elec       q    Type
REMARK                         _______ _______ _______ _____ _____    ______ ____
ROOT
ATOM      1  O   HOH     1      11.144 -11.282 -13.212  0.00  0.00    +0.000 OA
ENDROOT
TORSDOF 0
REMARK  Name = ../refined-set-2016/4jpx/4jpx_pocket.pdb
REMARK  125 active torsions:
REMARK  status: ('A' for Active; 'I' for Inactive)
REMARK    1  A    between atoms: _1  and  _3
REMARK    2  A    between atoms: _3  and  _4
REMARK    3  A    between atoms: _3  and  _6
REMARK    4  A    between atoms: _6  and  _7
REMARK    5  A    between atoms: _13  and  _15
REMARK    6  A    between atoms: _15  and  _16
REMARK    7  A    between atoms: _15  and  _18
REMARK    8  A    between atoms: _18  and  _19
REMARK    9  A    between atoms: _22  and  _24
REMARK   10  A    between atoms: _24  and  _25
REMARK   11  A    between atoms: _24  and  _27
REMARK   12  A    between atoms: _27  and  _28
REMARK   13  A    between atoms: _33  and  _34
REMARK   14  A    between atoms: _36  and  _38
REMARK   15  A    between atoms: _38  and  _39
REMARK   16  A    between atoms: _38  and  _41
REMARK   17  A    between atoms: _41  and  _42
REMARK   18  A    between atoms: _45  and  _47
REMARK   19  A    between atoms: _47  and  _48
REMARK   20  A    between atoms: _47  and  _50
REMARK   21  A    between atoms: _50  and  _51
REMARK   22  A    between atoms: _51  and  _52
REMARK   23  A    between atoms: _55  and  _57
REMARK   24  A    between atoms: _57  and  _58
REMARK   25  A    between atoms: _61  and  _63
REMARK   26  A    between atoms: _63  and  _64
REMARK   27  A    between atoms: _63  and  _66
REMARK   28  A    between atoms: _66  and  _67
REMARK   29  A    between atoms: _72  and  _73
REMARK   30  A    between atoms: _75  and  _77
REMARK   31  A    between atoms: _77  and  _78
REMARK   32  A    between atoms: _80  and  _82
REMARK   33  A    between atoms: _82  and  _83
REMARK   34  A    between atoms: _82  and  _85
REMARK   35  A    between atoms: _85  and  _86
REMARK   36  A    between atoms: _86  and  _87
REMARK   37  A    between atoms: _87  and  _88
REMARK   38  A    between atoms: _88  and  _89
REMARK   39  A    between atoms: _93  and  _95
REMARK   40  A    between atoms: _95  and  _96
REMARK   41  A    between atoms: _98  and  _100
REMARK   42  A    between atoms: _100  and  _101
REMARK   43  A    between atoms: _103  and  _105
REMARK   44  A    between atoms: _105  and  _106
REMARK   45  A    between atoms: _105  and  _108
REMARK   46  A    between atoms: _111  and  _113
REMARK   47  A    between atoms: _113  and  _114
REMARK   48  A    between atoms: _113  and  _116
REMARK   49  A    between atoms: _116  and  _117
REMARK   50  A    between atoms: _117  and  _118
REMARK   51  A    between atoms: _118  and  _119
REMARK   52  A    between atoms: _119  and  _120
REMARK   53  A    between atoms: _124  and  _126
REMARK   54  A    between atoms: _126  and  _127
REMARK   55  A    between atoms: _130  and  _132
REMARK   56  A    between atoms: _132  and  _133
REMARK   57  A    between atoms: _132  and  _135
REMARK   58  A    between atoms: _135  and  _136
REMARK   59  A    between atoms: _139  and  _141
REMARK   60  A    between atoms: _141  and  _142
REMARK   61  A    between atoms: _141  and  _144
REMARK   62  A    between atoms: _144  and  _145
REMARK   63  A    between atoms: _148  and  _150
REMARK   64  A    between atoms: _150  and  _151
REMARK   65  A    between atoms: _150  and  _153
REMARK   66  A    between atoms: _153  and  _154
REMARK   67  A    between atoms: _157  and  _159
REMARK   68  A    between atoms: _159  and  _160
REMARK   69  A    between atoms: _159  and  _162
REMARK   70  A    between atoms: _162  and  _163
REMARK   71  A    between atoms: _168  and  _169
REMARK   72  A    between atoms: _171  and  _173
REMARK   73  A    between atoms: _173  and  _174
REMARK   74  A    between atoms: _173  and  _176
REMARK   75  A    between atoms: _176  and  _177
REMARK   76  A    between atoms: _180  and  _182
REMARK   77  A    between atoms: _182  and  _183
REMARK   78  A    between atoms: _182  and  _185
REMARK   79  A    between atoms: _185  and  _186
REMARK   80  A    between atoms: _189  and  _191
REMARK   81  A    between atoms: _191  and  _192
REMARK   82  A    between atoms: _191  and  _194
REMARK   83  A    between atoms: _194  and  _195
REMARK   84  A    between atoms: _195  and  _196
REMARK   85  A    between atoms: _198  and  _200
REMARK   86  A    between atoms: _200  and  _201
REMARK   87  A    between atoms: _200  and  _203
REMARK   88  A    between atoms: _203  and  _204
REMARK   89  A    between atoms: _207  and  _209
REMARK   90  A    between atoms: _209  and  _210
REMARK   91  A    between atoms: _209  and  _212
REMARK   92  A    between atoms: _212  and  _213
REMARK   93  A    between atoms: _219  and  _221
REMARK   94  A    between atoms: _221  and  _222
REMARK   95  A    between atoms: _221  and  _224
REMARK   96  A    between atoms: _224  and  _225
REMARK   97  A    between atoms: _228  and  _230
REMARK   98  A    between atoms: _230  and  _231
REMARK   99  A    between atoms: _234  and  _236
REMARK  100  A    between atoms: _236  and  _237
REMARK  101  A    between atoms: _236  and  _239
REMARK  102  A    between atoms: _239  and  _240
REMARK  103  A    between atoms: _243  and  _245
REMARK  104  A    between atoms: _245  and  _246
REMARK  105  A    between atoms: _250  and  _251
REMARK  106  A    between atoms: _256  and  _258
REMARK  107  A    between atoms: _258  and  _259
REMARK  108  A    between atoms: _258  and  _261
REMARK  109  A    between atoms: _261  and  _262
REMARK  110  A    between atoms: _265  and  _267
REMARK  111  A    between atoms: _267  and  _268
REMARK  112  A    between atoms: _267  and  _270
REMARK  113  A    between atoms: _270  and  _271
REMARK  114  A    between atoms: _277  and  _279
REMARK  115  A    between atoms: _279  and  _280
REMARK  116  A    between atoms: _284  and  _285
REMARK  117  A    between atoms: _290  and  _292
REMARK  118  A    between atoms: _292  and  _293
REMARK  119  A    between atoms: _292  and  _295
REMARK  120  A    between atoms: _295  and  _296
REMARK  121  A    between atoms: _299  and  _301
REMARK  122  A    between atoms: _301  and  _302
REMARK  123  A    between atoms: _301  and  _304
REMARK  124  A    between atoms: _304  and  _305
REMARK  125  A    between atoms: _310  and  _311
REMARK                            x       y       z     vdW  Elec       q    Type
REMARK                         _______ _______ _______ _____ _____    ______ ____
ROOT
ATOM      1  O   HOH     1       0.053  -8.135 -14.793  0.00  0.00    +0.000 OA
ENDROOT
TORSDOF 0
REMARK  Name = ../refined-set-2016/4jpx/4jpx_pocket.pdb
REMARK  125 active torsions:
REMARK  status: ('A' for Active; 'I' for Inactive)
REMARK    1  A    between atoms: _1  and  _3
REMARK    2  A    between atoms: _3  and  _4
REMARK    3  A    between atoms: _3  and  _6
REMARK    4  A    between atoms: _6  and  _7
REMARK    5  A    between atoms: _13  and  _15
REMARK    6  A    between atoms: _15  and  _16
REMARK    7  A    between atoms: _15  and  _18
REMARK    8  A    between atoms: _18  and  _19
REMARK    9  A    between atoms: _22  and  _24
REMARK   10  A    between atoms: _24  and  _25
REMARK   11  A    between atoms: _24  and  _27
REMARK   12  A    between atoms: _27  and  _28
REMARK   13  A    between atoms: _33  and  _34
REMARK   14  A    between atoms: _36  and  _38
REMARK   15  A    between atoms: _38  and  _39
REMARK   16  A    between atoms: _38  and  _41
REMARK   17  A    between atoms: _41  and  _42
REMARK   18  A    between atoms: _45  and  _47
REMARK   19  A    between atoms: _47  and  _48
REMARK   20  A    between atoms: _47  and  _50
REMARK   21  A    between atoms: _50  and  _51
REMARK   22  A    between atoms: _51  and  _52
REMARK   23  A    between atoms: _55  and  _57
REMARK   24  A    between atoms: _57  and  _58
REMARK   25  A    between atoms: _61  and  _63
REMARK   26  A    between atoms: _63  and  _64
REMARK   27  A    between atoms: _63  and  _66
REMARK   28  A    between atoms: _66  and  _67
REMARK   29  A    between atoms: _72  and  _73
REMARK   30  A    between atoms: _75  and  _77
REMARK   31  A    between atoms: _77  and  _78
REMARK   32  A    between atoms: _80  and  _82
REMARK   33  A    between atoms: _82  and  _83
REMARK   34  A    between atoms: _82  and  _85
REMARK   35  A    between atoms: _85  and  _86
REMARK   36  A    between atoms: _86  and  _87
REMARK   37  A    between atoms: _87  and  _88
REMARK   38  A    between atoms: _88  and  _89
REMARK   39  A    between atoms: _93  and  _95
REMARK   40  A    between atoms: _95  and  _96
REMARK   41  A    between atoms: _98  and  _100
REMARK   42  A    between atoms: _100  and  _101
REMARK   43  A    between atoms: _103  and  _105
REMARK   44  A    between atoms: _105  and  _106
REMARK   45  A    between atoms: _105  and  _108
REMARK   46  A    between atoms: _111  and  _113
REMARK   47  A    between atoms: _113  and  _114
REMARK   48  A    between atoms: _113  and  _116
REMARK   49  A    between atoms: _116  and  _117
REMARK   50  A    between atoms: _117  and  _118
REMARK   51  A    between atoms: _118  and  _119
REMARK   52  A    between atoms: _119  and  _120
REMARK   53  A    between atoms: _124  and  _126
REMARK   54  A    between atoms: _126  and  _127
REMARK   55  A    between atoms: _130  and  _132
REMARK   56  A    between atoms: _132  and  _133
REMARK   57  A    between atoms: _132  and  _135
REMARK   58  A    between atoms: _135  and  _136
REMARK   59  A    between atoms: _139  and  _141
REMARK   60  A    between atoms: _141  and  _142
REMARK   61  A    between atoms: _141  and  _144
REMARK   62  A    between atoms: _144  and  _145
REMARK   63  A    between atoms: _148  and  _150
REMARK   64  A    between atoms: _150  and  _151
REMARK   65  A    between atoms: _150  and  _153
REMARK   66  A    between atoms: _153  and  _154
REMARK   67  A    between atoms: _157  and  _159
REMARK   68  A    between atoms: _159  and  _160
REMARK   69  A    between atoms: _159  and  _162
REMARK   70  A    between atoms: _162  and  _163
REMARK   71  A    between atoms: _168  and  _169
REMARK   72  A    between atoms: _171  and  _173
REMARK   73  A    between atoms: _173  and  _174
REMARK   74  A    between atoms: _173  and  _176
REMARK   75  A    between atoms: _176  and  _177
REMARK   76  A    between atoms: _180  and  _182
REMARK   77  A    between atoms: _182  and  _183
REMARK   78  A    between atoms: _182  and  _185
REMARK   79  A    between atoms: _185  and  _186
REMARK   80  A    between atoms: _189  and  _191
REMARK   81  A    between atoms: _191  and  _192
REMARK   82  A    between atoms: _191  and  _194
REMARK   83  A    between atoms: _194  and  _195
REMARK   84  A    between atoms: _195  and  _196
REMARK   85  A    between atoms: _198  and  _200
REMARK   86  A    between atoms: _200  and  _201
REMARK   87  A    between atoms: _200  and  _203
REMARK   88  A    between atoms: _203  and  _204
REMARK   89  A    between atoms: _207  and  _209
REMARK   90  A    between atoms: _209  and  _210
REMARK   91  A    between atoms: _209  and  _212
REMARK   92  A    between atoms: _212  and  _213
REMARK   93  A    between atoms: _219  and  _221
REMARK   94  A    between atoms: _221  and  _222
REMARK   95  A    between atoms: _221  and  _224
REMARK   96  A    between atoms: _224  and  _225
REMARK   97  A    between atoms: _228  and  _230
REMARK   98  A    between atoms: _230  and  _231
REMARK   99  A    between atoms: _234  and  _236
REMARK  100  A    between atoms: _236  and  _237
REMARK  101  A    between atoms: _236  and  _239
REMARK  102  A    between atoms: _239  and  _240
REMARK  103  A    between atoms: _243  and  _245
REMARK  104  A    between atoms: _245  and  _246
REMARK  105  A    between atoms: _250  and  _251
REMARK  106  A    between atoms: _256  and  _258
REMARK  107  A    between atoms: _258  and  _259
REMARK  108  A    between atoms: _258  and  _261
REMARK  109  A    between atoms: _261  and  _262
REMARK  110  A    between atoms: _265  and  _267
REMARK  111  A    between atoms: _267  and  _268
REMARK  112  A    between atoms: _267  and  _270
REMARK  113  A    between atoms: _270  and  _271
REMARK  114  A    between atoms: _277  and  _279
REMARK  115  A    between atoms: _279  and  _280
REMARK  116  A    between atoms: _284  and  _285
REMARK  117  A    between atoms: _290  and  _292
REMARK  118  A    between atoms: _292  and  _293
REMARK  119  A    between atoms: _292  and  _295
REMARK  120  A    between atoms: _295  and  _296
REMARK  121  A    between atoms: _299  and  _301
REMARK  122  A    between atoms: _301  and  _302
REMARK  123  A    between atoms: _301  and  _304
REMARK  124  A    between atoms: _304  and  _305
REMARK  125  A    between atoms: _310  and  _311
REMARK                            x       y       z     vdW  Elec       q    Type
REMARK                         _______ _______ _______ _____ _____    ______ ____
ROOT
ATOM      1  O   HOH     1       9.998  -6.867 -14.445  0.00  0.00    +0.000 OA
ENDROOT
TORSDOF 0
REMARK  Name = ../refined-set-2016/4jpx/4jpx_pocket.pdb
REMARK  125 active torsions:
REMARK  status: ('A' for Active; 'I' for Inactive)
REMARK    1  A    between atoms: _1  and  _3
REMARK    2  A    between atoms: _3  and  _4
REMARK    3  A    between atoms: _3  and  _6
REMARK    4  A    between atoms: _6  and  _7
REMARK    5  A    between atoms: _13  and  _15
REMARK    6  A    between atoms: _15  and  _16
REMARK    7  A    between atoms: _15  and  _18
REMARK    8  A    between atoms: _18  and  _19
REMARK    9  A    between atoms: _22  and  _24
REMARK   10  A    between atoms: _24  and  _25
REMARK   11  A    between atoms: _24  and  _27
REMARK   12  A    between atoms: _27  and  _28
REMARK   13  A    between atoms: _33  and  _34
REMARK   14  A    between atoms: _36  and  _38
REMARK   15  A    between atoms: _38  and  _39
REMARK   16  A    between atoms: _38  and  _41
REMARK   17  A    between atoms: _41  and  _42
REMARK   18  A    between atoms: _45  and  _47
REMARK   19  A    between atoms: _47  and  _48
REMARK   20  A    between atoms: _47  and  _50
REMARK   21  A    between atoms: _50  and  _51
REMARK   22  A    between atoms: _51  and  _52
REMARK   23  A    between atoms: _55  and  _57
REMARK   24  A    between atoms: _57  and  _58
REMARK   25  A    between atoms: _61  and  _63
REMARK   26  A    between atoms: _63  and  _64
REMARK   27  A    between atoms: _63  and  _66
REMARK   28  A    between atoms: _66  and  _67
REMARK   29  A    between atoms: _72  and  _73
REMARK   30  A    between atoms: _75  and  _77
REMARK   31  A    between atoms: _77  and  _78
REMARK   32  A    between atoms: _80  and  _82
REMARK   33  A    between atoms: _82  and  _83
REMARK   34  A    between atoms: _82  and  _85
REMARK   35  A    between atoms: _85  and  _86
REMARK   36  A    between atoms: _86  and  _87
REMARK   37  A    between atoms: _87  and  _88
REMARK   38  A    between atoms: _88  and  _89
REMARK   39  A    between atoms: _93  and  _95
REMARK   40  A    between atoms: _95  and  _96
REMARK   41  A    between atoms: _98  and  _100
REMARK   42  A    between atoms: _100  and  _101
REMARK   43  A    between atoms: _103  and  _105
REMARK   44  A    between atoms: _105  and  _106
REMARK   45  A    between atoms: _105  and  _108
REMARK   46  A    between atoms: _111  and  _113
REMARK   47  A    between atoms: _113  and  _114
REMARK   48  A    between atoms: _113  and  _116
REMARK   49  A    between atoms: _116  and  _117
REMARK   50  A    between atoms: _117  and  _118
REMARK   51  A    between atoms: _118  and  _119
REMARK   52  A    between atoms: _119  and  _120
REMARK   53  A    between atoms: _124  and  _126
REMARK   54  A    between atoms: _126  and  _127
REMARK   55  A    between atoms: _130  and  _132
REMARK   56  A    between atoms: _132  and  _133
REMARK   57  A    between atoms: _132  and  _135
REMARK   58  A    between atoms: _135  and  _136
REMARK   59  A    between atoms: _139  and  _141
REMARK   60  A    between atoms: _141  and  _142
REMARK   61  A    between atoms: _141  and  _144
REMARK   62  A    between atoms: _144  and  _145
REMARK   63  A    between atoms: _148  and  _150
REMARK   64  A    between atoms: _150  and  _151
REMARK   65  A    between atoms: _150  and  _153
REMARK   66  A    between atoms: _153  and  _154
REMARK   67  A    between atoms: _157  and  _159
REMARK   68  A    between atoms: _159  and  _160
REMARK   69  A    between atoms: _159  and  _162
REMARK   70  A    between atoms: _162  and  _163
REMARK   71  A    between atoms: _168  and  _169
REMARK   72  A    between atoms: _171  and  _173
REMARK   73  A    between atoms: _173  and  _174
REMARK   74  A    between atoms: _173  and  _176
REMARK   75  A    between atoms: _176  and  _177
REMARK   76  A    between atoms: _180  and  _182
REMARK   77  A    between atoms: _182  and  _183
REMARK   78  A    between atoms: _182  and  _185
REMARK   79  A    between atoms: _185  and  _186
REMARK   80  A    between atoms: _189  and  _191
REMARK   81  A    between atoms: _191  and  _192
REMARK   82  A    between atoms: _191  and  _194
REMARK   83  A    between atoms: _194  and  _195
REMARK   84  A    between atoms: _195  and  _196
REMARK   85  A    between atoms: _198  and  _200
REMARK   86  A    between atoms: _200  and  _201
REMARK   87  A    between atoms: _200  and  _203
REMARK   88  A    between atoms: _203  and  _204
REMARK   89  A    between atoms: _207  and  _209
REMARK   90  A    between atoms: _209  and  _210
REMARK   91  A    between atoms: _209  and  _212
REMARK   92  A    between atoms: _212  and  _213
REMARK   93  A    between atoms: _219  and  _221
REMARK   94  A    between atoms: _221  and  _222
REMARK   95  A    between atoms: _221  and  _224
REMARK   96  A    between atoms: _224  and  _225
REMARK   97  A    between atoms: _228  and  _230
REMARK   98  A    between atoms: _230  and  _231
REMARK   99  A    between atoms: _234  and  _236
REMARK  100  A    between atoms: _236  and  _237
REMARK  101  A    between atoms: _236  and  _239
REMARK  102  A    between atoms: _239  and  _240
REMARK  103  A    between atoms: _243  and  _245
REMARK  104  A    between atoms: _245  and  _246
REMARK  105  A    between atoms: _250  and  _251
REMARK  106  A    between atoms: _256  and  _258
REMARK  107  A    between atoms: _258  and  _259
REMARK  108  A    between atoms: _258  and  _261
REMARK  109  A    between atoms: _261  and  _262
REMARK  110  A    between atoms: _265  and  _267
REMARK  111  A    between atoms: _267  and  _268
REMARK  112  A    between atoms: _267  and  _270
REMARK  113  A    between atoms: _270  and  _271
REMARK  114  A    between atoms: _277  and  _279
REMARK  115  A    between atoms: _279  and  _280
REMARK  116  A    between atoms: _284  and  _285
REMARK  117  A    between atoms: _290  and  _292
REMARK  118  A    between atoms: _292  and  _293
REMARK  119  A    between atoms: _292  and  _295
REMARK  120  A    between atoms: _295  and  _296
REMARK  121  A    between atoms: _299  and  _301
REMARK  122  A    between atoms: _301  and  _302
REMARK  123  A    between atoms: _301  and  _304
REMARK  124  A    between atoms: _304  and  _305
REMARK  125  A    between atoms: _310  and  _311
REMARK                            x       y       z     vdW  Elec       q    Type
REMARK                         _______ _______ _______ _____ _____    ______ ____
ROOT
ATOM      1  O   HOH     1       4.023 -10.713 -16.178  0.00  0.00    +0.000 OA
ENDROOT
TORSDOF 0
REMARK  Name = ../refined-set-2016/4jpx/4jpx_pocket.pdb
REMARK  125 active torsions:
REMARK  status: ('A' for Active; 'I' for Inactive)
REMARK    1  A    between atoms: _1  and  _3
REMARK    2  A    between atoms: _3  and  _4
REMARK    3  A    between atoms: _3  and  _6
REMARK    4  A    between atoms: _6  and  _7
REMARK    5  A    between atoms: _13  and  _15
REMARK    6  A    between atoms: _15  and  _16
REMARK    7  A    between atoms: _15  and  _18
REMARK    8  A    between atoms: _18  and  _19
REMARK    9  A    between atoms: _22  and  _24
REMARK   10  A    between atoms: _24  and  _25
REMARK   11  A    between atoms: _24  and  _27
REMARK   12  A    between atoms: _27  and  _28
REMARK   13  A    between atoms: _33  and  _34
REMARK   14  A    between atoms: _36  and  _38
REMARK   15  A    between atoms: _38  and  _39
REMARK   16  A    between atoms: _38  and  _41
REMARK   17  A    between atoms: _41  and  _42
REMARK   18  A    between atoms: _45  and  _47
REMARK   19  A    between atoms: _47  and  _48
REMARK   20  A    between atoms: _47  and  _50
REMARK   21  A    between atoms: _50  and  _51
REMARK   22  A    between atoms: _51  and  _52
REMARK   23  A    between atoms: _55  and  _57
REMARK   24  A    between atoms: _57  and  _58
REMARK   25  A    between atoms: _61  and  _63
REMARK   26  A    between atoms: _63  and  _64
REMARK   27  A    between atoms: _63  and  _66
REMARK   28  A    between atoms: _66  and  _67
REMARK   29  A    between atoms: _72  and  _73
REMARK   30  A    between atoms: _75  and  _77
REMARK   31  A    between atoms: _77  and  _78
REMARK   32  A    between atoms: _80  and  _82
REMARK   33  A    between atoms: _82  and  _83
REMARK   34  A    between atoms: _82  and  _85
REMARK   35  A    between atoms: _85  and  _86
REMARK   36  A    between atoms: _86  and  _87
REMARK   37  A    between atoms: _87  and  _88
REMARK   38  A    between atoms: _88  and  _89
REMARK   39  A    between atoms: _93  and  _95
REMARK   40  A    between atoms: _95  and  _96
REMARK   41  A    between atoms: _98  and  _100
REMARK   42  A    between atoms: _100  and  _101
REMARK   43  A    between atoms: _103  and  _105
REMARK   44  A    between atoms: _105  and  _106
REMARK   45  A    between atoms: _105  and  _108
REMARK   46  A    between atoms: _111  and  _113
REMARK   47  A    between atoms: _113  and  _114
REMARK   48  A    between atoms: _113  and  _116
REMARK   49  A    between atoms: _116  and  _117
REMARK   50  A    between atoms: _117  and  _118
REMARK   51  A    between atoms: _118  and  _119
REMARK   52  A    between atoms: _119  and  _120
REMARK   53  A    between atoms: _124  and  _126
REMARK   54  A    between atoms: _126  and  _127
REMARK   55  A    between atoms: _130  and  _132
REMARK   56  A    between atoms: _132  and  _133
REMARK   57  A    between atoms: _132  and  _135
REMARK   58  A    between atoms: _135  and  _136
REMARK   59  A    between atoms: _139  and  _141
REMARK   60  A    between atoms: _141  and  _142
REMARK   61  A    between atoms: _141  and  _144
REMARK   62  A    between atoms: _144  and  _145
REMARK   63  A    between atoms: _148  and  _150
REMARK   64  A    between atoms: _150  and  _151
REMARK   65  A    between atoms: _150  and  _153
REMARK   66  A    between atoms: _153  and  _154
REMARK   67  A    between atoms: _157  and  _159
REMARK   68  A    between atoms: _159  and  _160
REMARK   69  A    between atoms: _159  and  _162
REMARK   70  A    between atoms: _162  and  _163
REMARK   71  A    between atoms: _168  and  _169
REMARK   72  A    between atoms: _171  and  _173
REMARK   73  A    between atoms: _173  and  _174
REMARK   74  A    between atoms: _173  and  _176
REMARK   75  A    between atoms: _176  and  _177
REMARK   76  A    between atoms: _180  and  _182
REMARK   77  A    between atoms: _182  and  _183
REMARK   78  A    between atoms: _182  and  _185
REMARK   79  A    between atoms: _185  and  _186
REMARK   80  A    between atoms: _189  and  _191
REMARK   81  A    between atoms: _191  and  _192
REMARK   82  A    between atoms: _191  and  _194
REMARK   83  A    between atoms: _194  and  _195
REMARK   84  A    between atoms: _195  and  _196
REMARK   85  A    between atoms: _198  and  _200
REMARK   86  A    between atoms: _200  and  _201
REMARK   87  A    between atoms: _200  and  _203
REMARK   88  A    between atoms: _203  and  _204
REMARK   89  A    between atoms: _207  and  _209
REMARK   90  A    between atoms: _209  and  _210
REMARK   91  A    between atoms: _209  and  _212
REMARK   92  A    between atoms: _212  and  _213
REMARK   93  A    between atoms: _219  and  _221
REMARK   94  A    between atoms: _221  and  _222
REMARK   95  A    between atoms: _221  and  _224
REMARK   96  A    between atoms: _224  and  _225
REMARK   97  A    between atoms: _228  and  _230
REMARK   98  A    between atoms: _230  and  _231
REMARK   99  A    between atoms: _234  and  _236
REMARK  100  A    between atoms: _236  and  _237
REMARK  101  A    between atoms: _236  and  _239
REMARK  102  A    between atoms: _239  and  _240
REMARK  103  A    between atoms: _243  and  _245
REMARK  104  A    between atoms: _245  and  _246
REMARK  105  A    between atoms: _250  and  _251
REMARK  106  A    between atoms: _256  and  _258
REMARK  107  A    between atoms: _258  and  _259
REMARK  108  A    between atoms: _258  and  _261
REMARK  109  A    between atoms: _261  and  _262
REMARK  110  A    between atoms: _265  and  _267
REMARK  111  A    between atoms: _267  and  _268
REMARK  112  A    between atoms: _267  and  _270
REMARK  113  A    between atoms: _270  and  _271
REMARK  114  A    between atoms: _277  and  _279
REMARK  115  A    between atoms: _279  and  _280
REMARK  116  A    between atoms: _284  and  _285
REMARK  117  A    between atoms: _290  and  _292
REMARK  118  A    between atoms: _292  and  _293
REMARK  119  A    between atoms: _292  and  _295
REMARK  120  A    between atoms: _295  and  _296
REMARK  121  A    between atoms: _299  and  _301
REMARK  122  A    between atoms: _301  and  _302
REMARK  123  A    between atoms: _301  and  _304
REMARK  124  A    between atoms: _304  and  _305
REMARK  125  A    between atoms: _310  and  _311
REMARK                            x       y       z     vdW  Elec       q    Type
REMARK                         _______ _______ _______ _____ _____    ______ ____
ROOT
ATOM      1  O   HOH     1       5.104 -11.374 -13.332  0.00  0.00    +0.000 OA
ENDROOT
TORSDOF 0
REMARK  Name = ../refined-set-2016/4jpx/4jpx_pocket.pdb
REMARK  125 active torsions:
REMARK  status: ('A' for Active; 'I' for Inactive)
REMARK    1  A    between atoms: _1  and  _3
REMARK    2  A    between atoms: _3  and  _4
REMARK    3  A    between atoms: _3  and  _6
REMARK    4  A    between atoms: _6  and  _7
REMARK    5  A    between atoms: _13  and  _15
REMARK    6  A    between atoms: _15  and  _16
REMARK    7  A    between atoms: _15  and  _18
REMARK    8  A    between atoms: _18  and  _19
REMARK    9  A    between atoms: _22  and  _24
REMARK   10  A    between atoms: _24  and  _25
REMARK   11  A    between atoms: _24  and  _27
REMARK   12  A    between atoms: _27  and  _28
REMARK   13  A    between atoms: _33  and  _34
REMARK   14  A    between atoms: _36  and  _38
REMARK   15  A    between atoms: _38  and  _39
REMARK   16  A    between atoms: _38  and  _41
REMARK   17  A    between atoms: _41  and  _42
REMARK   18  A    between atoms: _45  and  _47
REMARK   19  A    between atoms: _47  and  _48
REMARK   20  A    between atoms: _47  and  _50
REMARK   21  A    between atoms: _50  and  _51
REMARK   22  A    between atoms: _51  and  _52
REMARK   23  A    between atoms: _55  and  _57
REMARK   24  A    between atoms: _57  and  _58
REMARK   25  A    between atoms: _61  and  _63
REMARK   26  A    between atoms: _63  and  _64
REMARK   27  A    between atoms: _63  and  _66
REMARK   28  A    between atoms: _66  and  _67
REMARK   29  A    between atoms: _72  and  _73
REMARK   30  A    between atoms: _75  and  _77
REMARK   31  A    between atoms: _77  and  _78
REMARK   32  A    between atoms: _80  and  _82
REMARK   33  A    between atoms: _82  and  _83
REMARK   34  A    between atoms: _82  and  _85
REMARK   35  A    between atoms: _85  and  _86
REMARK   36  A    between atoms: _86  and  _87
REMARK   37  A    between atoms: _87  and  _88
REMARK   38  A    between atoms: _88  and  _89
REMARK   39  A    between atoms: _93  and  _95
REMARK   40  A    between atoms: _95  and  _96
REMARK   41  A    between atoms: _98  and  _100
REMARK   42  A    between atoms: _100  and  _101
REMARK   43  A    between atoms: _103  and  _105
REMARK   44  A    between atoms: _105  and  _106
REMARK   45  A    between atoms: _105  and  _108
REMARK   46  A    between atoms: _111  and  _113
REMARK   47  A    between atoms: _113  and  _114
REMARK   48  A    between atoms: _113  and  _116
REMARK   49  A    between atoms: _116  and  _117
REMARK   50  A    between atoms: _117  and  _118
REMARK   51  A    between atoms: _118  and  _119
REMARK   52  A    between atoms: _119  and  _120
REMARK   53  A    between atoms: _124  and  _126
REMARK   54  A    between atoms: _126  and  _127
REMARK   55  A    between atoms: _130  and  _132
REMARK   56  A    between atoms: _132  and  _133
REMARK   57  A    between atoms: _132  and  _135
REMARK   58  A    between atoms: _135  and  _136
REMARK   59  A    between atoms: _139  and  _141
REMARK   60  A    between atoms: _141  and  _142
REMARK   61  A    between atoms: _141  and  _144
REMARK   62  A    between atoms: _144  and  _145
REMARK   63  A    between atoms: _148  and  _150
REMARK   64  A    between atoms: _150  and  _151
REMARK   65  A    between atoms: _150  and  _153
REMARK   66  A    between atoms: _153  and  _154
REMARK   67  A    between atoms: _157  and  _159
REMARK   68  A    between atoms: _159  and  _160
REMARK   69  A    between atoms: _159  and  _162
REMARK   70  A    between atoms: _162  and  _163
REMARK   71  A    between atoms: _168  and  _169
REMARK   72  A    between atoms: _171  and  _173
REMARK   73  A    between atoms: _173  and  _174
REMARK   74  A    between atoms: _173  and  _176
REMARK   75  A    between atoms: _176  and  _177
REMARK   76  A    between atoms: _180  and  _182
REMARK   77  A    between atoms: _182  and  _183
REMARK   78  A    between atoms: _182  and  _185
REMARK   79  A    between atoms: _185  and  _186
REMARK   80  A    between atoms: _189  and  _191
REMARK   81  A    between atoms: _191  and  _192
REMARK   82  A    between atoms: _191  and  _194
REMARK   83  A    between atoms: _194  and  _195
REMARK   84  A    between atoms: _195  and  _196
REMARK   85  A    between atoms: _198  and  _200
REMARK   86  A    between atoms: _200  and  _201
REMARK   87  A    between atoms: _200  and  _203
REMARK   88  A    between atoms: _203  and  _204
REMARK   89  A    between atoms: _207  and  _209
REMARK   90  A    between atoms: _209  and  _210
REMARK   91  A    between atoms: _209  and  _212
REMARK   92  A    between atoms: _212  and  _213
REMARK   93  A    between atoms: _219  and  _221
REMARK   94  A    between atoms: _221  and  _222
REMARK   95  A    between atoms: _221  and  _224
REMARK   96  A    between atoms: _224  and  _225
REMARK   97  A    between atoms: _228  and  _230
REMARK   98  A    between atoms: _230  and  _231
REMARK   99  A    between atoms: _234  and  _236
REMARK  100  A    between atoms: _236  and  _237
REMARK  101  A    between atoms: _236  and  _239
REMARK  102  A    between atoms: _239  and  _240
REMARK  103  A    between atoms: _243  and  _245
REMARK  104  A    between atoms: _245  and  _246
REMARK  105  A    between atoms: _250  and  _251
REMARK  106  A    between atoms: _256  and  _258
REMARK  107  A    between atoms: _258  and  _259
REMARK  108  A    between atoms: _258  and  _261
REMARK  109  A    between atoms: _261  and  _262
REMARK  110  A    between atoms: _265  and  _267
REMARK  111  A    between atoms: _267  and  _268
REMARK  112  A    between atoms: _267  and  _270
REMARK  113  A    between atoms: _270  and  _271
REMARK  114  A    between atoms: _277  and  _279
REMARK  115  A    between atoms: _279  and  _280
REMARK  116  A    between atoms: _284  and  _285
REMARK  117  A    between atoms: _290  and  _292
REMARK  118  A    between atoms: _292  and  _293
REMARK  119  A    between atoms: _292  and  _295
REMARK  120  A    between atoms: _295  and  _296
REMARK  121  A    between atoms: _299  and  _301
REMARK  122  A    between atoms: _301  and  _302
REMARK  123  A    between atoms: _301  and  _304
REMARK  124  A    between atoms: _304  and  _305
REMARK  125  A    between atoms: _310  and  _311
REMARK                            x       y       z     vdW  Elec       q    Type
REMARK                         _______ _______ _______ _____ _____    ______ ____
ROOT
ATOM      1  O   HOH     1       1.325 -10.559 -15.421  0.00  0.00    +0.000 OA
ENDROOT
TORSDOF 0
REMARK  Name = ../refined-set-2016/4jpx/4jpx_pocket.pdb
REMARK  125 active torsions:
REMARK  status: ('A' for Active; 'I' for Inactive)
REMARK    1  A    between atoms: _1  and  _3
REMARK    2  A    between atoms: _3  and  _4
REMARK    3  A    between atoms: _3  and  _6
REMARK    4  A    between atoms: _6  and  _7
REMARK    5  A    between atoms: _13  and  _15
REMARK    6  A    between atoms: _15  and  _16
REMARK    7  A    between atoms: _15  and  _18
REMARK    8  A    between atoms: _18  and  _19
REMARK    9  A    between atoms: _22  and  _24
REMARK   10  A    between atoms: _24  and  _25
REMARK   11  A    between atoms: _24  and  _27
REMARK   12  A    between atoms: _27  and  _28
REMARK   13  A    between atoms: _33  and  _34
REMARK   14  A    between atoms: _36  and  _38
REMARK   15  A    between atoms: _38  and  _39
REMARK   16  A    between atoms: _38  and  _41
REMARK   17  A    between atoms: _41  and  _42
REMARK   18  A    between atoms: _45  and  _47
REMARK   19  A    between atoms: _47  and  _48
REMARK   20  A    between atoms: _47  and  _50
REMARK   21  A    between atoms: _50  and  _51
REMARK   22  A    between atoms: _51  and  _52
REMARK   23  A    between atoms: _55  and  _57
REMARK   24  A    between atoms: _57  and  _58
REMARK   25  A    between atoms: _61  and  _63
REMARK   26  A    between atoms: _63  and  _64
REMARK   27  A    between atoms: _63  and  _66
REMARK   28  A    between atoms: _66  and  _67
REMARK   29  A    between atoms: _72  and  _73
REMARK   30  A    between atoms: _75  and  _77
REMARK   31  A    between atoms: _77  and  _78
REMARK   32  A    between atoms: _80  and  _82
REMARK   33  A    between atoms: _82  and  _83
REMARK   34  A    between atoms: _82  and  _85
REMARK   35  A    between atoms: _85  and  _86
REMARK   36  A    between atoms: _86  and  _87
REMARK   37  A    between atoms: _87  and  _88
REMARK   38  A    between atoms: _88  and  _89
REMARK   39  A    between atoms: _93  and  _95
REMARK   40  A    between atoms: _95  and  _96
REMARK   41  A    between atoms: _98  and  _100
REMARK   42  A    between atoms: _100  and  _101
REMARK   43  A    between atoms: _103  and  _105
REMARK   44  A    between atoms: _105  and  _106
REMARK   45  A    between atoms: _105  and  _108
REMARK   46  A    between atoms: _111  and  _113
REMARK   47  A    between atoms: _113  and  _114
REMARK   48  A    between atoms: _113  and  _116
REMARK   49  A    between atoms: _116  and  _117
REMARK   50  A    between atoms: _117  and  _118
REMARK   51  A    between atoms: _118  and  _119
REMARK   52  A    between atoms: _119  and  _120
REMARK   53  A    between atoms: _124  and  _126
REMARK   54  A    between atoms: _126  and  _127
REMARK   55  A    between atoms: _130  and  _132
REMARK   56  A    between atoms: _132  and  _133
REMARK   57  A    between atoms: _132  and  _135
REMARK   58  A    between atoms: _135  and  _136
REMARK   59  A    between atoms: _139  and  _141
REMARK   60  A    between atoms: _141  and  _142
REMARK   61  A    between atoms: _141  and  _144
REMARK   62  A    between atoms: _144  and  _145
REMARK   63  A    between atoms: _148  and  _150
REMARK   64  A    between atoms: _150  and  _151
REMARK   65  A    between atoms: _150  and  _153
REMARK   66  A    between atoms: _153  and  _154
REMARK   67  A    between atoms: _157  and  _159
REMARK   68  A    between atoms: _159  and  _160
REMARK   69  A    between atoms: _159  and  _162
REMARK   70  A    between atoms: _162  and  _163
REMARK   71  A    between atoms: _168  and  _169
REMARK   72  A    between atoms: _171  and  _173
REMARK   73  A    between atoms: _173  and  _174
REMARK   74  A    between atoms: _173  and  _176
REMARK   75  A    between atoms: _176  and  _177
REMARK   76  A    between atoms: _180  and  _182
REMARK   77  A    between atoms: _182  and  _183
REMARK   78  A    between atoms: _182  and  _185
REMARK   79  A    between atoms: _185  and  _186
REMARK   80  A    between atoms: _189  and  _191
REMARK   81  A    between atoms: _191  and  _192
REMARK   82  A    between atoms: _191  and  _194
REMARK   83  A    between atoms: _194  and  _195
REMARK   84  A    between atoms: _195  and  _196
REMARK   85  A    between atoms: _198  and  _200
REMARK   86  A    between atoms: _200  and  _201
REMARK   87  A    between atoms: _200  and  _203
REMARK   88  A    between atoms: _203  and  _204
REMARK   89  A    between atoms: _207  and  _209
REMARK   90  A    between atoms: _209  and  _210
REMARK   91  A    between atoms: _209  and  _212
REMARK   92  A    between atoms: _212  and  _213
REMARK   93  A    between atoms: _219  and  _221
REMARK   94  A    between atoms: _221  and  _222
REMARK   95  A    between atoms: _221  and  _224
REMARK   96  A    between atoms: _224  and  _225
REMARK   97  A    between atoms: _228  and  _230
REMARK   98  A    between atoms: _230  and  _231
REMARK   99  A    between atoms: _234  and  _236
REMARK  100  A    between atoms: _236  and  _237
REMARK  101  A    between atoms: _236  and  _239
REMARK  102  A    between atoms: _239  and  _240
REMARK  103  A    between atoms: _243  and  _245
REMARK  104  A    between atoms: _245  and  _246
REMARK  105  A    between atoms: _250  and  _251
REMARK  106  A    between atoms: _256  and  _258
REMARK  107  A    between atoms: _258  and  _259
REMARK  108  A    between atoms: _258  and  _261
REMARK  109  A    between atoms: _261  and  _262
REMARK  110  A    between atoms: _265  and  _267
REMARK  111  A    between atoms: _267  and  _268
REMARK  112  A    between atoms: _267  and  _270
REMARK  113  A    between atoms: _270  and  _271
REMARK  114  A    between atoms: _277  and  _279
REMARK  115  A    between atoms: _279  and  _280
REMARK  116  A    between atoms: _284  and  _285
REMARK  117  A    between atoms: _290  and  _292
REMARK  118  A    between atoms: _292  and  _293
REMARK  119  A    between atoms: _292  and  _295
REMARK  120  A    between atoms: _295  and  _296
REMARK  121  A    between atoms: _299  and  _301
REMARK  122  A    between atoms: _301  and  _302
REMARK  123  A    between atoms: _301  and  _304
REMARK  124  A    between atoms: _304  and  _305
REMARK  125  A    between atoms: _310  and  _311
REMARK                            x       y       z     vdW  Elec       q    Type
REMARK                         _______ _______ _______ _____ _____    ______ ____
ROOT
ATOM      1  O   HOH     1       7.301 -12.462 -14.336  0.00  0.00    +0.000 OA
ENDROOT
TORSDOF 0
REMARK  Name = ../refined-set-2016/4jpx/4jpx_pocket.pdb
REMARK  125 active torsions:
REMARK  status: ('A' for Active; 'I' for Inactive)
REMARK    1  A    between atoms: _1  and  _3
REMARK    2  A    between atoms: _3  and  _4
REMARK    3  A    between atoms: _3  and  _6
REMARK    4  A    between atoms: _6  and  _7
REMARK    5  A    between atoms: _13  and  _15
REMARK    6  A    between atoms: _15  and  _16
REMARK    7  A    between atoms: _15  and  _18
REMARK    8  A    between atoms: _18  and  _19
REMARK    9  A    between atoms: _22  and  _24
REMARK   10  A    between atoms: _24  and  _25
REMARK   11  A    between atoms: _24  and  _27
REMARK   12  A    between atoms: _27  and  _28
REMARK   13  A    between atoms: _33  and  _34
REMARK   14  A    between atoms: _36  and  _38
REMARK   15  A    between atoms: _38  and  _39
REMARK   16  A    between atoms: _38  and  _41
REMARK   17  A    between atoms: _41  and  _42
REMARK   18  A    between atoms: _45  and  _47
REMARK   19  A    between atoms: _47  and  _48
REMARK   20  A    between atoms: _47  and  _50
REMARK   21  A    between atoms: _50  and  _51
REMARK   22  A    between atoms: _51  and  _52
REMARK   23  A    between atoms: _55  and  _57
REMARK   24  A    between atoms: _57  and  _58
REMARK   25  A    between atoms: _61  and  _63
REMARK   26  A    between atoms: _63  and  _64
REMARK   27  A    between atoms: _63  and  _66
REMARK   28  A    between atoms: _66  and  _67
REMARK   29  A    between atoms: _72  and  _73
REMARK   30  A    between atoms: _75  and  _77
REMARK   31  A    between atoms: _77  and  _78
REMARK   32  A    between atoms: _80  and  _82
REMARK   33  A    between atoms: _82  and  _83
REMARK   34  A    between atoms: _82  and  _85
REMARK   35  A    between atoms: _85  and  _86
REMARK   36  A    between atoms: _86  and  _87
REMARK   37  A    between atoms: _87  and  _88
REMARK   38  A    between atoms: _88  and  _89
REMARK   39  A    between atoms: _93  and  _95
REMARK   40  A    between atoms: _95  and  _96
REMARK   41  A    between atoms: _98  and  _100
REMARK   42  A    between atoms: _100  and  _101
REMARK   43  A    between atoms: _103  and  _105
REMARK   44  A    between atoms: _105  and  _106
REMARK   45  A    between atoms: _105  and  _108
REMARK   46  A    between atoms: _111  and  _113
REMARK   47  A    between atoms: _113  and  _114
REMARK   48  A    between atoms: _113  and  _116
REMARK   49  A    between atoms: _116  and  _117
REMARK   50  A    between atoms: _117  and  _118
REMARK   51  A    between atoms: _118  and  _119
REMARK   52  A    between atoms: _119  and  _120
REMARK   53  A    between atoms: _124  and  _126
REMARK   54  A    between atoms: _126  and  _127
REMARK   55  A    between atoms: _130  and  _132
REMARK   56  A    between atoms: _132  and  _133
REMARK   57  A    between atoms: _132  and  _135
REMARK   58  A    between atoms: _135  and  _136
REMARK   59  A    between atoms: _139  and  _141
REMARK   60  A    between atoms: _141  and  _142
REMARK   61  A    between atoms: _141  and  _144
REMARK   62  A    between atoms: _144  and  _145
REMARK   63  A    between atoms: _148  and  _150
REMARK   64  A    between atoms: _150  and  _151
REMARK   65  A    between atoms: _150  and  _153
REMARK   66  A    between atoms: _153  and  _154
REMARK   67  A    between atoms: _157  and  _159
REMARK   68  A    between atoms: _159  and  _160
REMARK   69  A    between atoms: _159  and  _162
REMARK   70  A    between atoms: _162  and  _163
REMARK   71  A    between atoms: _168  and  _169
REMARK   72  A    between atoms: _171  and  _173
REMARK   73  A    between atoms: _173  and  _174
REMARK   74  A    between atoms: _173  and  _176
REMARK   75  A    between atoms: _176  and  _177
REMARK   76  A    between atoms: _180  and  _182
REMARK   77  A    between atoms: _182  and  _183
REMARK   78  A    between atoms: _182  and  _185
REMARK   79  A    between atoms: _185  and  _186
REMARK   80  A    between atoms: _189  and  _191
REMARK   81  A    between atoms: _191  and  _192
REMARK   82  A    between atoms: _191  and  _194
REMARK   83  A    between atoms: _194  and  _195
REMARK   84  A    between atoms: _195  and  _196
REMARK   85  A    between atoms: _198  and  _200
REMARK   86  A    between atoms: _200  and  _201
REMARK   87  A    between atoms: _200  and  _203
REMARK   88  A    between atoms: _203  and  _204
REMARK   89  A    between atoms: _207  and  _209
REMARK   90  A    between atoms: _209  and  _210
REMARK   91  A    between atoms: _209  and  _212
REMARK   92  A    between atoms: _212  and  _213
REMARK   93  A    between atoms: _219  and  _221
REMARK   94  A    between atoms: _221  and  _222
REMARK   95  A    between atoms: _221  and  _224
REMARK   96  A    between atoms: _224  and  _225
REMARK   97  A    between atoms: _228  and  _230
REMARK   98  A    between atoms: _230  and  _231
REMARK   99  A    between atoms: _234  and  _236
REMARK  100  A    between atoms: _236  and  _237
REMARK  101  A    between atoms: _236  and  _239
REMARK  102  A    between atoms: _239  and  _240
REMARK  103  A    between atoms: _243  and  _245
REMARK  104  A    between atoms: _245  and  _246
REMARK  105  A    between atoms: _250  and  _251
REMARK  106  A    between atoms: _256  and  _258
REMARK  107  A    between atoms: _258  and  _259
REMARK  108  A    between atoms: _258  and  _261
REMARK  109  A    between atoms: _261  and  _262
REMARK  110  A    between atoms: _265  and  _267
REMARK  111  A    between atoms: _267  and  _268
REMARK  112  A    between atoms: _267  and  _270
REMARK  113  A    between atoms: _270  and  _271
REMARK  114  A    between atoms: _277  and  _279
REMARK  115  A    between atoms: _279  and  _280
REMARK  116  A    between atoms: _284  and  _285
REMARK  117  A    between atoms: _290  and  _292
REMARK  118  A    between atoms: _292  and  _293
REMARK  119  A    between atoms: _292  and  _295
REMARK  120  A    between atoms: _295  and  _296
REMARK  121  A    between atoms: _299  and  _301
REMARK  122  A    between atoms: _301  and  _302
REMARK  123  A    between atoms: _301  and  _304
REMARK  124  A    between atoms: _304  and  _305
REMARK  125  A    between atoms: _310  and  _311
REMARK                            x       y       z     vdW  Elec       q    Type
REMARK                         _______ _______ _______ _____ _____    ______ ____
ROOT
ATOM      1  O   HOH     1       3.453 -13.595 -13.260  0.00  0.00    +0.000 OA
ENDROOT
TORSDOF 0
REMARK  Name = ../refined-set-2016/4jpx/4jpx_pocket.pdb
REMARK  125 active torsions:
REMARK  status: ('A' for Active; 'I' for Inactive)
REMARK    1  A    between atoms: _1  and  _3
REMARK    2  A    between atoms: _3  and  _4
REMARK    3  A    between atoms: _3  and  _6
REMARK    4  A    between atoms: _6  and  _7
REMARK    5  A    between atoms: _13  and  _15
REMARK    6  A    between atoms: _15  and  _16
REMARK    7  A    between atoms: _15  and  _18
REMARK    8  A    between atoms: _18  and  _19
REMARK    9  A    between atoms: _22  and  _24
REMARK   10  A    between atoms: _24  and  _25
REMARK   11  A    between atoms: _24  and  _27
REMARK   12  A    between atoms: _27  and  _28
REMARK   13  A    between atoms: _33  and  _34
REMARK   14  A    between atoms: _36  and  _38
REMARK   15  A    between atoms: _38  and  _39
REMARK   16  A    between atoms: _38  and  _41
REMARK   17  A    between atoms: _41  and  _42
REMARK   18  A    between atoms: _45  and  _47
REMARK   19  A    between atoms: _47  and  _48
REMARK   20  A    between atoms: _47  and  _50
REMARK   21  A    between atoms: _50  and  _51
REMARK   22  A    between atoms: _51  and  _52
REMARK   23  A    between atoms: _55  and  _57
REMARK   24  A    between atoms: _57  and  _58
REMARK   25  A    between atoms: _61  and  _63
REMARK   26  A    between atoms: _63  and  _64
REMARK   27  A    between atoms: _63  and  _66
REMARK   28  A    between atoms: _66  and  _67
REMARK   29  A    between atoms: _72  and  _73
REMARK   30  A    between atoms: _75  and  _77
REMARK   31  A    between atoms: _77  and  _78
REMARK   32  A    between atoms: _80  and  _82
REMARK   33  A    between atoms: _82  and  _83
REMARK   34  A    between atoms: _82  and  _85
REMARK   35  A    between atoms: _85  and  _86
REMARK   36  A    between atoms: _86  and  _87
REMARK   37  A    between atoms: _87  and  _88
REMARK   38  A    between atoms: _88  and  _89
REMARK   39  A    between atoms: _93  and  _95
REMARK   40  A    between atoms: _95  and  _96
REMARK   41  A    between atoms: _98  and  _100
REMARK   42  A    between atoms: _100  and  _101
REMARK   43  A    between atoms: _103  and  _105
REMARK   44  A    between atoms: _105  and  _106
REMARK   45  A    between atoms: _105  and  _108
REMARK   46  A    between atoms: _111  and  _113
REMARK   47  A    between atoms: _113  and  _114
REMARK   48  A    between atoms: _113  and  _116
REMARK   49  A    between atoms: _116  and  _117
REMARK   50  A    between atoms: _117  and  _118
REMARK   51  A    between atoms: _118  and  _119
REMARK   52  A    between atoms: _119  and  _120
REMARK   53  A    between atoms: _124  and  _126
REMARK   54  A    between atoms: _126  and  _127
REMARK   55  A    between atoms: _130  and  _132
REMARK   56  A    between atoms: _132  and  _133
REMARK   57  A    between atoms: _132  and  _135
REMARK   58  A    between atoms: _135  and  _136
REMARK   59  A    between atoms: _139  and  _141
REMARK   60  A    between atoms: _141  and  _142
REMARK   61  A    between atoms: _141  and  _144
REMARK   62  A    between atoms: _144  and  _145
REMARK   63  A    between atoms: _148  and  _150
REMARK   64  A    between atoms: _150  and  _151
REMARK   65  A    between atoms: _150  and  _153
REMARK   66  A    between atoms: _153  and  _154
REMARK   67  A    between atoms: _157  and  _159
REMARK   68  A    between atoms: _159  and  _160
REMARK   69  A    between atoms: _159  and  _162
REMARK   70  A    between atoms: _162  and  _163
REMARK   71  A    between atoms: _168  and  _169
REMARK   72  A    between atoms: _171  and  _173
REMARK   73  A    between atoms: _173  and  _174
REMARK   74  A    between atoms: _173  and  _176
REMARK   75  A    between atoms: _176  and  _177
REMARK   76  A    between atoms: _180  and  _182
REMARK   77  A    between atoms: _182  and  _183
REMARK   78  A    between atoms: _182  and  _185
REMARK   79  A    between atoms: _185  and  _186
REMARK   80  A    between atoms: _189  and  _191
REMARK   81  A    between atoms: _191  and  _192
REMARK   82  A    between atoms: _191  and  _194
REMARK   83  A    between atoms: _194  and  _195
REMARK   84  A    between atoms: _195  and  _196
REMARK   85  A    between atoms: _198  and  _200
REMARK   86  A    between atoms: _200  and  _201
REMARK   87  A    between atoms: _200  and  _203
REMARK   88  A    between atoms: _203  and  _204
REMARK   89  A    between atoms: _207  and  _209
REMARK   90  A    between atoms: _209  and  _210
REMARK   91  A    between atoms: _209  and  _212
REMARK   92  A    between atoms: _212  and  _213
REMARK   93  A    between atoms: _219  and  _221
REMARK   94  A    between atoms: _221  and  _222
REMARK   95  A    between atoms: _221  and  _224
REMARK   96  A    between atoms: _224  and  _225
REMARK   97  A    between atoms: _228  and  _230
REMARK   98  A    between atoms: _230  and  _231
REMARK   99  A    between atoms: _234  and  _236
REMARK  100  A    between atoms: _236  and  _237
REMARK  101  A    between atoms: _236  and  _239
REMARK  102  A    between atoms: _239  and  _240
REMARK  103  A    between atoms: _243  and  _245
REMARK  104  A    between atoms: _245  and  _246
REMARK  105  A    between atoms: _250  and  _251
REMARK  106  A    between atoms: _256  and  _258
REMARK  107  A    between atoms: _258  and  _259
REMARK  108  A    between atoms: _258  and  _261
REMARK  109  A    between atoms: _261  and  _262
REMARK  110  A    between atoms: _265  and  _267
REMARK  111  A    between atoms: _267  and  _268
REMARK  112  A    between atoms: _267  and  _270
REMARK  113  A    between atoms: _270  and  _271
REMARK  114  A    between atoms: _277  and  _279
REMARK  115  A    between atoms: _279  and  _280
REMARK  116  A    between atoms: _284  and  _285
REMARK  117  A    between atoms: _290  and  _292
REMARK  118  A    between atoms: _292  and  _293
REMARK  119  A    between atoms: _292  and  _295
REMARK  120  A    between atoms: _295  and  _296
REMARK  121  A    between atoms: _299  and  _301
REMARK  122  A    between atoms: _301  and  _302
REMARK  123  A    between atoms: _301  and  _304
REMARK  124  A    between atoms: _304  and  _305
REMARK  125  A    between atoms: _310  and  _311
REMARK                            x       y       z     vdW  Elec       q    Type
REMARK                         _______ _______ _______ _____ _____    ______ ____
ROOT
ATOM      1  O   HOH     1       5.118  -8.737 -24.279  0.00  0.00    +0.000 OA
ENDROOT
TORSDOF 0
REMARK  Name = ../refined-set-2016/4jpx/4jpx_pocket.pdb
REMARK  125 active torsions:
REMARK  status: ('A' for Active; 'I' for Inactive)
REMARK    1  A    between atoms: _1  and  _3
REMARK    2  A    between atoms: _3  and  _4
REMARK    3  A    between atoms: _3  and  _6
REMARK    4  A    between atoms: _6  and  _7
REMARK    5  A    between atoms: _13  and  _15
REMARK    6  A    between atoms: _15  and  _16
REMARK    7  A    between atoms: _15  and  _18
REMARK    8  A    between atoms: _18  and  _19
REMARK    9  A    between atoms: _22  and  _24
REMARK   10  A    between atoms: _24  and  _25
REMARK   11  A    between atoms: _24  and  _27
REMARK   12  A    between atoms: _27  and  _28
REMARK   13  A    between atoms: _33  and  _34
REMARK   14  A    between atoms: _36  and  _38
REMARK   15  A    between atoms: _38  and  _39
REMARK   16  A    between atoms: _38  and  _41
REMARK   17  A    between atoms: _41  and  _42
REMARK   18  A    between atoms: _45  and  _47
REMARK   19  A    between atoms: _47  and  _48
REMARK   20  A    between atoms: _47  and  _50
REMARK   21  A    between atoms: _50  and  _51
REMARK   22  A    between atoms: _51  and  _52
REMARK   23  A    between atoms: _55  and  _57
REMARK   24  A    between atoms: _57  and  _58
REMARK   25  A    between atoms: _61  and  _63
REMARK   26  A    between atoms: _63  and  _64
REMARK   27  A    between atoms: _63  and  _66
REMARK   28  A    between atoms: _66  and  _67
REMARK   29  A    between atoms: _72  and  _73
REMARK   30  A    between atoms: _75  and  _77
REMARK   31  A    between atoms: _77  and  _78
REMARK   32  A    between atoms: _80  and  _82
REMARK   33  A    between atoms: _82  and  _83
REMARK   34  A    between atoms: _82  and  _85
REMARK   35  A    between atoms: _85  and  _86
REMARK   36  A    between atoms: _86  and  _87
REMARK   37  A    between atoms: _87  and  _88
REMARK   38  A    between atoms: _88  and  _89
REMARK   39  A    between atoms: _93  and  _95
REMARK   40  A    between atoms: _95  and  _96
REMARK   41  A    between atoms: _98  and  _100
REMARK   42  A    between atoms: _100  and  _101
REMARK   43  A    between atoms: _103  and  _105
REMARK   44  A    between atoms: _105  and  _106
REMARK   45  A    between atoms: _105  and  _108
REMARK   46  A    between atoms: _111  and  _113
REMARK   47  A    between atoms: _113  and  _114
REMARK   48  A    between atoms: _113  and  _116
REMARK   49  A    between atoms: _116  and  _117
REMARK   50  A    between atoms: _117  and  _118
REMARK   51  A    between atoms: _118  and  _119
REMARK   52  A    between atoms: _119  and  _120
REMARK   53  A    between atoms: _124  and  _126
REMARK   54  A    between atoms: _126  and  _127
REMARK   55  A    between atoms: _130  and  _132
REMARK   56  A    between atoms: _132  and  _133
REMARK   57  A    between atoms: _132  and  _135
REMARK   58  A    between atoms: _135  and  _136
REMARK   59  A    between atoms: _139  and  _141
REMARK   60  A    between atoms: _141  and  _142
REMARK   61  A    between atoms: _141  and  _144
REMARK   62  A    between atoms: _144  and  _145
REMARK   63  A    between atoms: _148  and  _150
REMARK   64  A    between atoms: _150  and  _151
REMARK   65  A    between atoms: _150  and  _153
REMARK   66  A    between atoms: _153  and  _154
REMARK   67  A    between atoms: _157  and  _159
REMARK   68  A    between atoms: _159  and  _160
REMARK   69  A    between atoms: _159  and  _162
REMARK   70  A    between atoms: _162  and  _163
REMARK   71  A    between atoms: _168  and  _169
REMARK   72  A    between atoms: _171  and  _173
REMARK   73  A    between atoms: _173  and  _174
REMARK   74  A    between atoms: _173  and  _176
REMARK   75  A    between atoms: _176  and  _177
REMARK   76  A    between atoms: _180  and  _182
REMARK   77  A    between atoms: _182  and  _183
REMARK   78  A    between atoms: _182  and  _185
REMARK   79  A    between atoms: _185  and  _186
REMARK   80  A    between atoms: _189  and  _191
REMARK   81  A    between atoms: _191  and  _192
REMARK   82  A    between atoms: _191  and  _194
REMARK   83  A    between atoms: _194  and  _195
REMARK   84  A    between atoms: _195  and  _196
REMARK   85  A    between atoms: _198  and  _200
REMARK   86  A    between atoms: _200  and  _201
REMARK   87  A    between atoms: _200  and  _203
REMARK   88  A    between atoms: _203  and  _204
REMARK   89  A    between atoms: _207  and  _209
REMARK   90  A    between atoms: _209  and  _210
REMARK   91  A    between atoms: _209  and  _212
REMARK   92  A    between atoms: _212  and  _213
REMARK   93  A    between atoms: _219  and  _221
REMARK   94  A    between atoms: _221  and  _222
REMARK   95  A    between atoms: _221  and  _224
REMARK   96  A    between atoms: _224  and  _225
REMARK   97  A    between atoms: _228  and  _230
REMARK   98  A    between atoms: _230  and  _231
REMARK   99  A    between atoms: _234  and  _236
REMARK  100  A    between atoms: _236  and  _237
REMARK  101  A    between atoms: _236  and  _239
REMARK  102  A    between atoms: _239  and  _240
REMARK  103  A    between atoms: _243  and  _245
REMARK  104  A    between atoms: _245  and  _246
REMARK  105  A    between atoms: _250  and  _251
REMARK  106  A    between atoms: _256  and  _258
REMARK  107  A    between atoms: _258  and  _259
REMARK  108  A    between atoms: _258  and  _261
REMARK  109  A    between atoms: _261  and  _262
REMARK  110  A    between atoms: _265  and  _267
REMARK  111  A    between atoms: _267  and  _268
REMARK  112  A    between atoms: _267  and  _270
REMARK  113  A    between atoms: _270  and  _271
REMARK  114  A    between atoms: _277  and  _279
REMARK  115  A    between atoms: _279  and  _280
REMARK  116  A    between atoms: _284  and  _285
REMARK  117  A    between atoms: _290  and  _292
REMARK  118  A    between atoms: _292  and  _293
REMARK  119  A    between atoms: _292  and  _295
REMARK  120  A    between atoms: _295  and  _296
REMARK  121  A    between atoms: _299  and  _301
REMARK  122  A    between atoms: _301  and  _302
REMARK  123  A    between atoms: _301  and  _304
REMARK  124  A    between atoms: _304  and  _305
REMARK  125  A    between atoms: _310  and  _311
REMARK                            x       y       z     vdW  Elec       q    Type
REMARK                         _______ _______ _______ _____ _____    ______ ____
ROOT
ATOM      1  O   HOH     1      -0.525 -13.426 -10.906  0.00  0.00    +0.000 OA
ENDROOT
TORSDOF 0
REMARK  Name = ../refined-set-2016/4jpx/4jpx_pocket.pdb
REMARK  125 active torsions:
REMARK  status: ('A' for Active; 'I' for Inactive)
REMARK    1  A    between atoms: _1  and  _3
REMARK    2  A    between atoms: _3  and  _4
REMARK    3  A    between atoms: _3  and  _6
REMARK    4  A    between atoms: _6  and  _7
REMARK    5  A    between atoms: _13  and  _15
REMARK    6  A    between atoms: _15  and  _16
REMARK    7  A    between atoms: _15  and  _18
REMARK    8  A    between atoms: _18  and  _19
REMARK    9  A    between atoms: _22  and  _24
REMARK   10  A    between atoms: _24  and  _25
REMARK   11  A    between atoms: _24  and  _27
REMARK   12  A    between atoms: _27  and  _28
REMARK   13  A    between atoms: _33  and  _34
REMARK   14  A    between atoms: _36  and  _38
REMARK   15  A    between atoms: _38  and  _39
REMARK   16  A    between atoms: _38  and  _41
REMARK   17  A    between atoms: _41  and  _42
REMARK   18  A    between atoms: _45  and  _47
REMARK   19  A    between atoms: _47  and  _48
REMARK   20  A    between atoms: _47  and  _50
REMARK   21  A    between atoms: _50  and  _51
REMARK   22  A    between atoms: _51  and  _52
REMARK   23  A    between atoms: _55  and  _57
REMARK   24  A    between atoms: _57  and  _58
REMARK   25  A    between atoms: _61  and  _63
REMARK   26  A    between atoms: _63  and  _64
REMARK   27  A    between atoms: _63  and  _66
REMARK   28  A    between atoms: _66  and  _67
REMARK   29  A    between atoms: _72  and  _73
REMARK   30  A    between atoms: _75  and  _77
REMARK   31  A    between atoms: _77  and  _78
REMARK   32  A    between atoms: _80  and  _82
REMARK   33  A    between atoms: _82  and  _83
REMARK   34  A    between atoms: _82  and  _85
REMARK   35  A    between atoms: _85  and  _86
REMARK   36  A    between atoms: _86  and  _87
REMARK   37  A    between atoms: _87  and  _88
REMARK   38  A    between atoms: _88  and  _89
REMARK   39  A    between atoms: _93  and  _95
REMARK   40  A    between atoms: _95  and  _96
REMARK   41  A    between atoms: _98  and  _100
REMARK   42  A    between atoms: _100  and  _101
REMARK   43  A    between atoms: _103  and  _105
REMARK   44  A    between atoms: _105  and  _106
REMARK   45  A    between atoms: _105  and  _108
REMARK   46  A    between atoms: _111  and  _113
REMARK   47  A    between atoms: _113  and  _114
REMARK   48  A    between atoms: _113  and  _116
REMARK   49  A    between atoms: _116  and  _117
REMARK   50  A    between atoms: _117  and  _118
REMARK   51  A    between atoms: _118  and  _119
REMARK   52  A    between atoms: _119  and  _120
REMARK   53  A    between atoms: _124  and  _126
REMARK   54  A    between atoms: _126  and  _127
REMARK   55  A    between atoms: _130  and  _132
REMARK   56  A    between atoms: _132  and  _133
REMARK   57  A    between atoms: _132  and  _135
REMARK   58  A    between atoms: _135  and  _136
REMARK   59  A    between atoms: _139  and  _141
REMARK   60  A    between atoms: _141  and  _142
REMARK   61  A    between atoms: _141  and  _144
REMARK   62  A    between atoms: _144  and  _145
REMARK   63  A    between atoms: _148  and  _150
REMARK   64  A    between atoms: _150  and  _151
REMARK   65  A    between atoms: _150  and  _153
REMARK   66  A    between atoms: _153  and  _154
REMARK   67  A    between atoms: _157  and  _159
REMARK   68  A    between atoms: _159  and  _160
REMARK   69  A    between atoms: _159  and  _162
REMARK   70  A    between atoms: _162  and  _163
REMARK   71  A    between atoms: _168  and  _169
REMARK   72  A    between atoms: _171  and  _173
REMARK   73  A    between atoms: _173  and  _174
REMARK   74  A    between atoms: _173  and  _176
REMARK   75  A    between atoms: _176  and  _177
REMARK   76  A    between atoms: _180  and  _182
REMARK   77  A    between atoms: _182  and  _183
REMARK   78  A    between atoms: _182  and  _185
REMARK   79  A    between atoms: _185  and  _186
REMARK   80  A    between atoms: _189  and  _191
REMARK   81  A    between atoms: _191  and  _192
REMARK   82  A    between atoms: _191  and  _194
REMARK   83  A    between atoms: _194  and  _195
REMARK   84  A    between atoms: _195  and  _196
REMARK   85  A    between atoms: _198  and  _200
REMARK   86  A    between atoms: _200  and  _201
REMARK   87  A    between atoms: _200  and  _203
REMARK   88  A    between atoms: _203  and  _204
REMARK   89  A    between atoms: _207  and  _209
REMARK   90  A    between atoms: _209  and  _210
REMARK   91  A    between atoms: _209  and  _212
REMARK   92  A    between atoms: _212  and  _213
REMARK   93  A    between atoms: _219  and  _221
REMARK   94  A    between atoms: _221  and  _222
REMARK   95  A    between atoms: _221  and  _224
REMARK   96  A    between atoms: _224  and  _225
REMARK   97  A    between atoms: _228  and  _230
REMARK   98  A    between atoms: _230  and  _231
REMARK   99  A    between atoms: _234  and  _236
REMARK  100  A    between atoms: _236  and  _237
REMARK  101  A    between atoms: _236  and  _239
REMARK  102  A    between atoms: _239  and  _240
REMARK  103  A    between atoms: _243  and  _245
REMARK  104  A    between atoms: _245  and  _246
REMARK  105  A    between atoms: _250  and  _251
REMARK  106  A    between atoms: _256  and  _258
REMARK  107  A    between atoms: _258  and  _259
REMARK  108  A    between atoms: _258  and  _261
REMARK  109  A    between atoms: _261  and  _262
REMARK  110  A    between atoms: _265  and  _267
REMARK  111  A    between atoms: _267  and  _268
REMARK  112  A    between atoms: _267  and  _270
REMARK  113  A    between atoms: _270  and  _271
REMARK  114  A    between atoms: _277  and  _279
REMARK  115  A    between atoms: _279  and  _280
REMARK  116  A    between atoms: _284  and  _285
REMARK  117  A    between atoms: _290  and  _292
REMARK  118  A    between atoms: _292  and  _293
REMARK  119  A    between atoms: _292  and  _295
REMARK  120  A    between atoms: _295  and  _296
REMARK  121  A    between atoms: _299  and  _301
REMARK  122  A    between atoms: _301  and  _302
REMARK  123  A    between atoms: _301  and  _304
REMARK  124  A    between atoms: _304  and  _305
REMARK  125  A    between atoms: _310  and  _311
REMARK                            x       y       z     vdW  Elec       q    Type
REMARK                         _______ _______ _______ _____ _____    ______ ____
ROOT
ATOM      1  O   HOH     1      13.350  -9.891 -22.618  0.00  0.00    +0.000 OA
ENDROOT
TORSDOF 0
REMARK  Name = ../refined-set-2016/4jpx/4jpx_pocket.pdb
REMARK  125 active torsions:
REMARK  status: ('A' for Active; 'I' for Inactive)
REMARK    1  A    between atoms: _1  and  _3
REMARK    2  A    between atoms: _3  and  _4
REMARK    3  A    between atoms: _3  and  _6
REMARK    4  A    between atoms: _6  and  _7
REMARK    5  A    between atoms: _13  and  _15
REMARK    6  A    between atoms: _15  and  _16
REMARK    7  A    between atoms: _15  and  _18
REMARK    8  A    between atoms: _18  and  _19
REMARK    9  A    between atoms: _22  and  _24
REMARK   10  A    between atoms: _24  and  _25
REMARK   11  A    between atoms: _24  and  _27
REMARK   12  A    between atoms: _27  and  _28
REMARK   13  A    between atoms: _33  and  _34
REMARK   14  A    between atoms: _36  and  _38
REMARK   15  A    between atoms: _38  and  _39
REMARK   16  A    between atoms: _38  and  _41
REMARK   17  A    between atoms: _41  and  _42
REMARK   18  A    between atoms: _45  and  _47
REMARK   19  A    between atoms: _47  and  _48
REMARK   20  A    between atoms: _47  and  _50
REMARK   21  A    between atoms: _50  and  _51
REMARK   22  A    between atoms: _51  and  _52
REMARK   23  A    between atoms: _55  and  _57
REMARK   24  A    between atoms: _57  and  _58
REMARK   25  A    between atoms: _61  and  _63
REMARK   26  A    between atoms: _63  and  _64
REMARK   27  A    between atoms: _63  and  _66
REMARK   28  A    between atoms: _66  and  _67
REMARK   29  A    between atoms: _72  and  _73
REMARK   30  A    between atoms: _75  and  _77
REMARK   31  A    between atoms: _77  and  _78
REMARK   32  A    between atoms: _80  and  _82
REMARK   33  A    between atoms: _82  and  _83
REMARK   34  A    between atoms: _82  and  _85
REMARK   35  A    between atoms: _85  and  _86
REMARK   36  A    between atoms: _86  and  _87
REMARK   37  A    between atoms: _87  and  _88
REMARK   38  A    between atoms: _88  and  _89
REMARK   39  A    between atoms: _93  and  _95
REMARK   40  A    between atoms: _95  and  _96
REMARK   41  A    between atoms: _98  and  _100
REMARK   42  A    between atoms: _100  and  _101
REMARK   43  A    between atoms: _103  and  _105
REMARK   44  A    between atoms: _105  and  _106
REMARK   45  A    between atoms: _105  and  _108
REMARK   46  A    between atoms: _111  and  _113
REMARK   47  A    between atoms: _113  and  _114
REMARK   48  A    between atoms: _113  and  _116
REMARK   49  A    between atoms: _116  and  _117
REMARK   50  A    between atoms: _117  and  _118
REMARK   51  A    between atoms: _118  and  _119
REMARK   52  A    between atoms: _119  and  _120
REMARK   53  A    between atoms: _124  and  _126
REMARK   54  A    between atoms: _126  and  _127
REMARK   55  A    between atoms: _130  and  _132
REMARK   56  A    between atoms: _132  and  _133
REMARK   57  A    between atoms: _132  and  _135
REMARK   58  A    between atoms: _135  and  _136
REMARK   59  A    between atoms: _139  and  _141
REMARK   60  A    between atoms: _141  and  _142
REMARK   61  A    between atoms: _141  and  _144
REMARK   62  A    between atoms: _144  and  _145
REMARK   63  A    between atoms: _148  and  _150
REMARK   64  A    between atoms: _150  and  _151
REMARK   65  A    between atoms: _150  and  _153
REMARK   66  A    between atoms: _153  and  _154
REMARK   67  A    between atoms: _157  and  _159
REMARK   68  A    between atoms: _159  and  _160
REMARK   69  A    between atoms: _159  and  _162
REMARK   70  A    between atoms: _162  and  _163
REMARK   71  A    between atoms: _168  and  _169
REMARK   72  A    between atoms: _171  and  _173
REMARK   73  A    between atoms: _173  and  _174
REMARK   74  A    between atoms: _173  and  _176
REMARK   75  A    between atoms: _176  and  _177
REMARK   76  A    between atoms: _180  and  _182
REMARK   77  A    between atoms: _182  and  _183
REMARK   78  A    between atoms: _182  and  _185
REMARK   79  A    between atoms: _185  and  _186
REMARK   80  A    between atoms: _189  and  _191
REMARK   81  A    between atoms: _191  and  _192
REMARK   82  A    between atoms: _191  and  _194
REMARK   83  A    between atoms: _194  and  _195
REMARK   84  A    between atoms: _195  and  _196
REMARK   85  A    between atoms: _198  and  _200
REMARK   86  A    between atoms: _200  and  _201
REMARK   87  A    between atoms: _200  and  _203
REMARK   88  A    between atoms: _203  and  _204
REMARK   89  A    between atoms: _207  and  _209
REMARK   90  A    between atoms: _209  and  _210
REMARK   91  A    between atoms: _209  and  _212
REMARK   92  A    between atoms: _212  and  _213
REMARK   93  A    between atoms: _219  and  _221
REMARK   94  A    between atoms: _221  and  _222
REMARK   95  A    between atoms: _221  and  _224
REMARK   96  A    between atoms: _224  and  _225
REMARK   97  A    between atoms: _228  and  _230
REMARK   98  A    between atoms: _230  and  _231
REMARK   99  A    between atoms: _234  and  _236
REMARK  100  A    between atoms: _236  and  _237
REMARK  101  A    between atoms: _236  and  _239
REMARK  102  A    between atoms: _239  and  _240
REMARK  103  A    between atoms: _243  and  _245
REMARK  104  A    between atoms: _245  and  _246
REMARK  105  A    between atoms: _250  and  _251
REMARK  106  A    between atoms: _256  and  _258
REMARK  107  A    between atoms: _258  and  _259
REMARK  108  A    between atoms: _258  and  _261
REMARK  109  A    between atoms: _261  and  _262
REMARK  110  A    between atoms: _265  and  _267
REMARK  111  A    between atoms: _267  and  _268
REMARK  112  A    between atoms: _267  and  _270
REMARK  113  A    between atoms: _270  and  _271
REMARK  114  A    between atoms: _277  and  _279
REMARK  115  A    between atoms: _279  and  _280
REMARK  116  A    between atoms: _284  and  _285
REMARK  117  A    between atoms: _290  and  _292
REMARK  118  A    between atoms: _292  and  _293
REMARK  119  A    between atoms: _292  and  _295
REMARK  120  A    between atoms: _295  and  _296
REMARK  121  A    between atoms: _299  and  _301
REMARK  122  A    between atoms: _301  and  _302
REMARK  123  A    between atoms: _301  and  _304
REMARK  124  A    between atoms: _304  and  _305
REMARK  125  A    between atoms: _310  and  _311
REMARK                            x       y       z     vdW  Elec       q    Type
REMARK                         _______ _______ _______ _____ _____    ______ ____
ROOT
ATOM      1  O   HOH     1       9.368 -10.926 -15.296  0.00  0.00    +0.000 OA
ENDROOT
TORSDOF 0
REMARK  Name = ../refined-set-2016/4jpx/4jpx_pocket.pdb
REMARK  125 active torsions:
REMARK  status: ('A' for Active; 'I' for Inactive)
REMARK    1  A    between atoms: _1  and  _3
REMARK    2  A    between atoms: _3  and  _4
REMARK    3  A    between atoms: _3  and  _6
REMARK    4  A    between atoms: _6  and  _7
REMARK    5  A    between atoms: _13  and  _15
REMARK    6  A    between atoms: _15  and  _16
REMARK    7  A    between atoms: _15  and  _18
REMARK    8  A    between atoms: _18  and  _19
REMARK    9  A    between atoms: _22  and  _24
REMARK   10  A    between atoms: _24  and  _25
REMARK   11  A    between atoms: _24  and  _27
REMARK   12  A    between atoms: _27  and  _28
REMARK   13  A    between atoms: _33  and  _34
REMARK   14  A    between atoms: _36  and  _38
REMARK   15  A    between atoms: _38  and  _39
REMARK   16  A    between atoms: _38  and  _41
REMARK   17  A    between atoms: _41  and  _42
REMARK   18  A    between atoms: _45  and  _47
REMARK   19  A    between atoms: _47  and  _48
REMARK   20  A    between atoms: _47  and  _50
REMARK   21  A    between atoms: _50  and  _51
REMARK   22  A    between atoms: _51  and  _52
REMARK   23  A    between atoms: _55  and  _57
REMARK   24  A    between atoms: _57  and  _58
REMARK   25  A    between atoms: _61  and  _63
REMARK   26  A    between atoms: _63  and  _64
REMARK   27  A    between atoms: _63  and  _66
REMARK   28  A    between atoms: _66  and  _67
REMARK   29  A    between atoms: _72  and  _73
REMARK   30  A    between atoms: _75  and  _77
REMARK   31  A    between atoms: _77  and  _78
REMARK   32  A    between atoms: _80  and  _82
REMARK   33  A    between atoms: _82  and  _83
REMARK   34  A    between atoms: _82  and  _85
REMARK   35  A    between atoms: _85  and  _86
REMARK   36  A    between atoms: _86  and  _87
REMARK   37  A    between atoms: _87  and  _88
REMARK   38  A    between atoms: _88  and  _89
REMARK   39  A    between atoms: _93  and  _95
REMARK   40  A    between atoms: _95  and  _96
REMARK   41  A    between atoms: _98  and  _100
REMARK   42  A    between atoms: _100  and  _101
REMARK   43  A    between atoms: _103  and  _105
REMARK   44  A    between atoms: _105  and  _106
REMARK   45  A    between atoms: _105  and  _108
REMARK   46  A    between atoms: _111  and  _113
REMARK   47  A    between atoms: _113  and  _114
REMARK   48  A    between atoms: _113  and  _116
REMARK   49  A    between atoms: _116  and  _117
REMARK   50  A    between atoms: _117  and  _118
REMARK   51  A    between atoms: _118  and  _119
REMARK   52  A    between atoms: _119  and  _120
REMARK   53  A    between atoms: _124  and  _126
REMARK   54  A    between atoms: _126  and  _127
REMARK   55  A    between atoms: _130  and  _132
REMARK   56  A    between atoms: _132  and  _133
REMARK   57  A    between atoms: _132  and  _135
REMARK   58  A    between atoms: _135  and  _136
REMARK   59  A    between atoms: _139  and  _141
REMARK   60  A    between atoms: _141  and  _142
REMARK   61  A    between atoms: _141  and  _144
REMARK   62  A    between atoms: _144  and  _145
REMARK   63  A    between atoms: _148  and  _150
REMARK   64  A    between atoms: _150  and  _151
REMARK   65  A    between atoms: _150  and  _153
REMARK   66  A    between atoms: _153  and  _154
REMARK   67  A    between atoms: _157  and  _159
REMARK   68  A    between atoms: _159  and  _160
REMARK   69  A    between atoms: _159  and  _162
REMARK   70  A    between atoms: _162  and  _163
REMARK   71  A    between atoms: _168  and  _169
REMARK   72  A    between atoms: _171  and  _173
REMARK   73  A    between atoms: _173  and  _174
REMARK   74  A    between atoms: _173  and  _176
REMARK   75  A    between atoms: _176  and  _177
REMARK   76  A    between atoms: _180  and  _182
REMARK   77  A    between atoms: _182  and  _183
REMARK   78  A    between atoms: _182  and  _185
REMARK   79  A    between atoms: _185  and  _186
REMARK   80  A    between atoms: _189  and  _191
REMARK   81  A    between atoms: _191  and  _192
REMARK   82  A    between atoms: _191  and  _194
REMARK   83  A    between atoms: _194  and  _195
REMARK   84  A    between atoms: _195  and  _196
REMARK   85  A    between atoms: _198  and  _200
REMARK   86  A    between atoms: _200  and  _201
REMARK   87  A    between atoms: _200  and  _203
REMARK   88  A    between atoms: _203  and  _204
REMARK   89  A    between atoms: _207  and  _209
REMARK   90  A    between atoms: _209  and  _210
REMARK   91  A    between atoms: _209  and  _212
REMARK   92  A    between atoms: _212  and  _213
REMARK   93  A    between atoms: _219  and  _221
REMARK   94  A    between atoms: _221  and  _222
REMARK   95  A    between atoms: _221  and  _224
REMARK   96  A    between atoms: _224  and  _225
REMARK   97  A    between atoms: _228  and  _230
REMARK   98  A    between atoms: _230  and  _231
REMARK   99  A    between atoms: _234  and  _236
REMARK  100  A    between atoms: _236  and  _237
REMARK  101  A    between atoms: _236  and  _239
REMARK  102  A    between atoms: _239  and  _240
REMARK  103  A    between atoms: _243  and  _245
REMARK  104  A    between atoms: _245  and  _246
REMARK  105  A    between atoms: _250  and  _251
REMARK  106  A    between atoms: _256  and  _258
REMARK  107  A    between atoms: _258  and  _259
REMARK  108  A    between atoms: _258  and  _261
REMARK  109  A    between atoms: _261  and  _262
REMARK  110  A    between atoms: _265  and  _267
REMARK  111  A    between atoms: _267  and  _268
REMARK  112  A    between atoms: _267  and  _270
REMARK  113  A    between atoms: _270  and  _271
REMARK  114  A    between atoms: _277  and  _279
REMARK  115  A    between atoms: _279  and  _280
REMARK  116  A    between atoms: _284  and  _285
REMARK  117  A    between atoms: _290  and  _292
REMARK  118  A    between atoms: _292  and  _293
REMARK  119  A    between atoms: _292  and  _295
REMARK  120  A    between atoms: _295  and  _296
REMARK  121  A    between atoms: _299  and  _301
REMARK  122  A    between atoms: _301  and  _302
REMARK  123  A    between atoms: _301  and  _304
REMARK  124  A    between atoms: _304  and  _305
REMARK  125  A    between atoms: _310  and  _311
REMARK                            x       y       z     vdW  Elec       q    Type
REMARK                         _______ _______ _______ _____ _____    ______ ____
ROOT
ATOM      1  O   HOH     1       1.717 -14.722 -11.199  0.00  0.00    +0.000 OA
ENDROOT
TORSDOF 0
REMARK  Name = ../refined-set-2016/4jpx/4jpx_pocket.pdb
REMARK  125 active torsions:
REMARK  status: ('A' for Active; 'I' for Inactive)
REMARK    1  A    between atoms: _1  and  _3
REMARK    2  A    between atoms: _3  and  _4
REMARK    3  A    between atoms: _3  and  _6
REMARK    4  A    between atoms: _6  and  _7
REMARK    5  A    between atoms: _13  and  _15
REMARK    6  A    between atoms: _15  and  _16
REMARK    7  A    between atoms: _15  and  _18
REMARK    8  A    between atoms: _18  and  _19
REMARK    9  A    between atoms: _22  and  _24
REMARK   10  A    between atoms: _24  and  _25
REMARK   11  A    between atoms: _24  and  _27
REMARK   12  A    between atoms: _27  and  _28
REMARK   13  A    between atoms: _33  and  _34
REMARK   14  A    between atoms: _36  and  _38
REMARK   15  A    between atoms: _38  and  _39
REMARK   16  A    between atoms: _38  and  _41
REMARK   17  A    between atoms: _41  and  _42
REMARK   18  A    between atoms: _45  and  _47
REMARK   19  A    between atoms: _47  and  _48
REMARK   20  A    between atoms: _47  and  _50
REMARK   21  A    between atoms: _50  and  _51
REMARK   22  A    between atoms: _51  and  _52
REMARK   23  A    between atoms: _55  and  _57
REMARK   24  A    between atoms: _57  and  _58
REMARK   25  A    between atoms: _61  and  _63
REMARK   26  A    between atoms: _63  and  _64
REMARK   27  A    between atoms: _63  and  _66
REMARK   28  A    between atoms: _66  and  _67
REMARK   29  A    between atoms: _72  and  _73
REMARK   30  A    between atoms: _75  and  _77
REMARK   31  A    between atoms: _77  and  _78
REMARK   32  A    between atoms: _80  and  _82
REMARK   33  A    between atoms: _82  and  _83
REMARK   34  A    between atoms: _82  and  _85
REMARK   35  A    between atoms: _85  and  _86
REMARK   36  A    between atoms: _86  and  _87
REMARK   37  A    between atoms: _87  and  _88
REMARK   38  A    between atoms: _88  and  _89
REMARK   39  A    between atoms: _93  and  _95
REMARK   40  A    between atoms: _95  and  _96
REMARK   41  A    between atoms: _98  and  _100
REMARK   42  A    between atoms: _100  and  _101
REMARK   43  A    between atoms: _103  and  _105
REMARK   44  A    between atoms: _105  and  _106
REMARK   45  A    between atoms: _105  and  _108
REMARK   46  A    between atoms: _111  and  _113
REMARK   47  A    between atoms: _113  and  _114
REMARK   48  A    between atoms: _113  and  _116
REMARK   49  A    between atoms: _116  and  _117
REMARK   50  A    between atoms: _117  and  _118
REMARK   51  A    between atoms: _118  and  _119
REMARK   52  A    between atoms: _119  and  _120
REMARK   53  A    between atoms: _124  and  _126
REMARK   54  A    between atoms: _126  and  _127
REMARK   55  A    between atoms: _130  and  _132
REMARK   56  A    between atoms: _132  and  _133
REMARK   57  A    between atoms: _132  and  _135
REMARK   58  A    between atoms: _135  and  _136
REMARK   59  A    between atoms: _139  and  _141
REMARK   60  A    between atoms: _141  and  _142
REMARK   61  A    between atoms: _141  and  _144
REMARK   62  A    between atoms: _144  and  _145
REMARK   63  A    between atoms: _148  and  _150
REMARK   64  A    between atoms: _150  and  _151
REMARK   65  A    between atoms: _150  and  _153
REMARK   66  A    between atoms: _153  and  _154
REMARK   67  A    between atoms: _157  and  _159
REMARK   68  A    between atoms: _159  and  _160
REMARK   69  A    between atoms: _159  and  _162
REMARK   70  A    between atoms: _162  and  _163
REMARK   71  A    between atoms: _168  and  _169
REMARK   72  A    between atoms: _171  and  _173
REMARK   73  A    between atoms: _173  and  _174
REMARK   74  A    between atoms: _173  and  _176
REMARK   75  A    between atoms: _176  and  _177
REMARK   76  A    between atoms: _180  and  _182
REMARK   77  A    between atoms: _182  and  _183
REMARK   78  A    between atoms: _182  and  _185
REMARK   79  A    between atoms: _185  and  _186
REMARK   80  A    between atoms: _189  and  _191
REMARK   81  A    between atoms: _191  and  _192
REMARK   82  A    between atoms: _191  and  _194
REMARK   83  A    between atoms: _194  and  _195
REMARK   84  A    between atoms: _195  and  _196
REMARK   85  A    between atoms: _198  and  _200
REMARK   86  A    between atoms: _200  and  _201
REMARK   87  A    between atoms: _200  and  _203
REMARK   88  A    between atoms: _203  and  _204
REMARK   89  A    between atoms: _207  and  _209
REMARK   90  A    between atoms: _209  and  _210
REMARK   91  A    between atoms: _209  and  _212
REMARK   92  A    between atoms: _212  and  _213
REMARK   93  A    between atoms: _219  and  _221
REMARK   94  A    between atoms: _221  and  _222
REMARK   95  A    between atoms: _221  and  _224
REMARK   96  A    between atoms: _224  and  _225
REMARK   97  A    between atoms: _228  and  _230
REMARK   98  A    between atoms: _230  and  _231
REMARK   99  A    between atoms: _234  and  _236
REMARK  100  A    between atoms: _236  and  _237
REMARK  101  A    between atoms: _236  and  _239
REMARK  102  A    between atoms: _239  and  _240
REMARK  103  A    between atoms: _243  and  _245
REMARK  104  A    between atoms: _245  and  _246
REMARK  105  A    between atoms: _250  and  _251
REMARK  106  A    between atoms: _256  and  _258
REMARK  107  A    between atoms: _258  and  _259
REMARK  108  A    between atoms: _258  and  _261
REMARK  109  A    between atoms: _261  and  _262
REMARK  110  A    between atoms: _265  and  _267
REMARK  111  A    between atoms: _267  and  _268
REMARK  112  A    between atoms: _267  and  _270
REMARK  113  A    between atoms: _270  and  _271
REMARK  114  A    between atoms: _277  and  _279
REMARK  115  A    between atoms: _279  and  _280
REMARK  116  A    between atoms: _284  and  _285
REMARK  117  A    between atoms: _290  and  _292
REMARK  118  A    between atoms: _292  and  _293
REMARK  119  A    between atoms: _292  and  _295
REMARK  120  A    between atoms: _295  and  _296
REMARK  121  A    between atoms: _299  and  _301
REMARK  122  A    between atoms: _301  and  _302
REMARK  123  A    between atoms: _301  and  _304
REMARK  124  A    between atoms: _304  and  _305
REMARK  125  A    between atoms: _310  and  _311
REMARK                            x       y       z     vdW  Elec       q    Type
REMARK                         _______ _______ _______ _____ _____    ______ ____
ROOT
ATOM      1  O   HOH     1       6.921 -11.335 -19.323  0.00  0.00    +0.000 OA
ENDROOT
TORSDOF 0
