REMARK  Name = ../refined-set-2016/2pyn/2pyn_pocket.pdb
REMARK  230 active torsions:
REMARK  status: ('A' for Active; 'I' for Inactive)
REMARK    1  A    between atoms: _1  and  _3
REMARK    2  A    between atoms: _3  and  _4
REMARK    3  A    between atoms: _3  and  _6
REMARK    4  A    between atoms: _6  and  _7
REMARK    5  A    between atoms: _7  and  _8
REMARK    6  A    between atoms: _8  and  _9
REMARK    7  A    between atoms: _18  and  _20
REMARK    8  A    between atoms: _20  and  _21
REMARK    9  A    between atoms: _20  and  _23
REMARK   10  A    between atoms: _23  and  _24
REMARK   11  A    between atoms: _27  and  _29
REMARK   12  A    between atoms: _29  and  _30
REMARK   13  A    between atoms: _29  and  _32
REMARK   14  A    between atoms: _32  and  _33
REMARK   15  A    between atoms: _36  and  _38
REMARK   16  A    between atoms: _38  and  _39
REMARK   17  A    between atoms: _38  and  _41
REMARK   18  A    between atoms: _41  and  _42
REMARK   19  A    between atoms: _45  and  _47
REMARK   20  A    between atoms: _47  and  _48
REMARK   21  A    between atoms: _47  and  _50
REMARK   22  A    between atoms: _50  and  _51
REMARK   23  A    between atoms: _54  and  _56
REMARK   24  A    between atoms: _56  and  _57
REMARK   25  A    between atoms: _59  and  _61
REMARK   26  A    between atoms: _61  and  _62
REMARK   27  A    between atoms: _65  and  _67
REMARK   28  A    between atoms: _67  and  _68
REMARK   29  A    between atoms: _67  and  _70
REMARK   30  A    between atoms: _70  and  _71
REMARK   31  A    between atoms: _74  and  _76
REMARK   32  A    between atoms: _76  and  _77
REMARK   33  A    between atoms: _76  and  _79
REMARK   34  A    between atoms: _79  and  _80
REMARK   35  A    between atoms: _85  and  _87
REMARK   36  A    between atoms: _87  and  _88
REMARK   37  A    between atoms: _87  and  _90
REMARK   38  A    between atoms: _90  and  _91
REMARK   39  A    between atoms: _94  and  _96
REMARK   40  A    between atoms: _96  and  _97
REMARK   41  A    between atoms: _96  and  _99
REMARK   42  A    between atoms: _102  and  _104
REMARK   43  A    between atoms: _104  and  _105
REMARK   44  A    between atoms: _104  and  _107
REMARK   45  A    between atoms: _107  and  _108
REMARK   46  A    between atoms: _108  and  _109
REMARK   47  A    between atoms: _109  and  _110
REMARK   48  A    between atoms: _110  and  _111
REMARK   49  A    between atoms: _115  and  _117
REMARK   50  A    between atoms: _117  and  _118
REMARK   51  A    between atoms: _117  and  _120
REMARK   52  A    between atoms: _120  and  _121
REMARK   53  A    between atoms: _121  and  _122
REMARK   54  A    between atoms: _124  and  _126
REMARK   55  A    between atoms: _126  and  _127
REMARK   56  A    between atoms: _126  and  _129
REMARK   57  A    between atoms: _129  and  _130
REMARK   58  A    between atoms: _133  and  _135
REMARK   59  A    between atoms: _135  and  _136
REMARK   60  A    between atoms: _138  and  _140
REMARK   61  A    between atoms: _140  and  _141
REMARK   62  A    between atoms: _143  and  _145
REMARK   63  A    between atoms: _145  and  _146
REMARK   64  A    between atoms: _145  and  _148
REMARK   65  A    between atoms: _148  and  _149
REMARK   66  A    between atoms: _152  and  _154
REMARK   67  A    between atoms: _154  and  _155
REMARK   68  A    between atoms: _157  and  _159
REMARK   69  A    between atoms: _159  and  _160
REMARK   70  A    between atoms: _162  and  _164
REMARK   71  A    between atoms: _164  and  _165
REMARK   72  A    between atoms: _164  and  _167
REMARK   73  A    between atoms: _167  and  _168
REMARK   74  A    between atoms: _171  and  _173
REMARK   75  A    between atoms: _173  and  _174
REMARK   76  A    between atoms: _173  and  _176
REMARK   77  A    between atoms: _176  and  _177
REMARK   78  A    between atoms: _181  and  _182
REMARK   79  A    between atoms: _187  and  _189
REMARK   80  A    between atoms: _189  and  _190
REMARK   81  A    between atoms: _189  and  _192
REMARK   82  A    between atoms: _192  and  _193
REMARK   83  A    between atoms: _197  and  _198
REMARK   84  A    between atoms: _203  and  _205
REMARK   85  A    between atoms: _205  and  _206
REMARK   86  A    between atoms: _205  and  _208
REMARK   87  A    between atoms: _211  and  _213
REMARK   88  A    between atoms: _213  and  _214
REMARK   89  A    between atoms: _213  and  _216
REMARK   90  A    between atoms: _216  and  _217
REMARK   91  A    between atoms: _222  and  _224
REMARK   92  A    between atoms: _224  and  _225
REMARK   93  A    between atoms: _224  and  _227
REMARK   94  A    between atoms: _227  and  _228
REMARK   95  A    between atoms: _231  and  _233
REMARK   96  A    between atoms: _233  and  _234
REMARK   97  A    between atoms: _233  and  _236
REMARK   98  A    between atoms: _236  and  _237
REMARK   99  A    between atoms: _240  and  _242
REMARK  100  A    between atoms: _242  and  _243
REMARK  101  A    between atoms: _245  and  _247
REMARK  102  A    between atoms: _247  and  _248
REMARK  103  A    between atoms: _247  and  _250
REMARK  104  A    between atoms: _250  and  _251
REMARK  105  A    between atoms: _251  and  _252
REMARK  106  A    between atoms: _252  and  _253
REMARK  107  A    between atoms: _262  and  _264
REMARK  108  A    between atoms: _264  and  _265
REMARK  109  A    between atoms: _264  and  _267
REMARK  110  A    between atoms: _267  and  _268
REMARK  111  A    between atoms: _273  and  _275
REMARK  112  A    between atoms: _275  and  _276
REMARK  113  A    between atoms: _275  and  _278
REMARK  114  A    between atoms: _278  and  _279
REMARK  115  A    between atoms: _279  and  _280
REMARK  116  A    between atoms: _280  and  _281
REMARK  117  A    between atoms: _290  and  _292
REMARK  118  A    between atoms: _292  and  _293
REMARK  119  A    between atoms: _292  and  _295
REMARK  120  A    between atoms: _295  and  _296
REMARK  121  A    between atoms: _299  and  _301
REMARK  122  A    between atoms: _301  and  _302
REMARK  123  A    between atoms: _301  and  _304
REMARK  124  A    between atoms: _304  and  _305
REMARK  125  A    between atoms: _308  and  _310
REMARK  126  A    between atoms: _310  and  _311
REMARK  127  A    between atoms: _310  and  _313
REMARK  128  A    between atoms: _313  and  _314
REMARK  129  A    between atoms: _317  and  _319
REMARK  130  A    between atoms: _319  and  _320
REMARK  131  A    between atoms: _319  and  _322
REMARK  132  A    between atoms: _322  and  _323
REMARK  133  A    between atoms: _326  and  _328
REMARK  134  A    between atoms: _328  and  _329
REMARK  135  A    between atoms: _328  and  _331
REMARK  136  A    between atoms: _331  and  _332
REMARK  137  A    between atoms: _335  and  _337
REMARK  138  A    between atoms: _337  and  _338
REMARK  139  A    between atoms: _340  and  _342
REMARK  140  A    between atoms: _342  and  _343
REMARK  141  A    between atoms: _346  and  _348
REMARK  142  A    between atoms: _348  and  _349
REMARK  143  A    between atoms: _348  and  _351
REMARK  144  A    between atoms: _351  and  _352
REMARK  145  A    between atoms: _355  and  _357
REMARK  146  A    between atoms: _357  and  _358
REMARK  147  A    between atoms: _357  and  _360
REMARK  148  A    between atoms: _360  and  _361
REMARK  149  A    between atoms: _366  and  _368
REMARK  150  A    between atoms: _368  and  _369
REMARK  151  A    between atoms: _368  and  _371
REMARK  152  A    between atoms: _371  and  _372
REMARK  153  A    between atoms: _375  and  _377
REMARK  154  A    between atoms: _377  and  _378
REMARK  155  A    between atoms: _377  and  _380
REMARK  156  A    between atoms: _383  and  _385
REMARK  157  A    between atoms: _385  and  _386
REMARK  158  A    between atoms: _385  and  _388
REMARK  159  A    between atoms: _388  and  _389
REMARK  160  A    between atoms: _389  and  _390
REMARK  161  A    between atoms: _390  and  _391
REMARK  162  A    between atoms: _391  and  _392
REMARK  163  A    between atoms: _396  and  _398
REMARK  164  A    between atoms: _398  and  _399
REMARK  165  A    between atoms: _398  and  _401
REMARK  166  A    between atoms: _401  and  _402
REMARK  167  A    between atoms: _402  and  _403
REMARK  168  A    between atoms: _405  and  _407
REMARK  169  A    between atoms: _407  and  _408
REMARK  170  A    between atoms: _407  and  _410
REMARK  171  A    between atoms: _410  and  _411
REMARK  172  A    between atoms: _414  and  _416
REMARK  173  A    between atoms: _416  and  _417
REMARK  174  A    between atoms: _419  and  _421
REMARK  175  A    between atoms: _421  and  _422
REMARK  176  A    between atoms: _424  and  _426
REMARK  177  A    between atoms: _426  and  _427
REMARK  178  A    between atoms: _426  and  _429
REMARK  179  A    between atoms: _429  and  _430
REMARK  180  A    between atoms: _433  and  _435
REMARK  181  A    between atoms: _435  and  _436
REMARK  182  A    between atoms: _438  and  _440
REMARK  183  A    between atoms: _440  and  _441
REMARK  184  A    between atoms: _443  and  _445
REMARK  185  A    between atoms: _445  and  _446
REMARK  186  A    between atoms: _445  and  _448
REMARK  187  A    between atoms: _448  and  _449
REMARK  188  A    between atoms: _455  and  _457
REMARK  189  A    between atoms: _457  and  _458
REMARK  190  A    between atoms: _457  and  _460
REMARK  191  A    between atoms: _460  and  _461
REMARK  192  A    between atoms: _464  and  _466
REMARK  193  A    between atoms: _466  and  _467
REMARK  194  A    between atoms: _466  and  _469
REMARK  195  A    between atoms: _472  and  _474
REMARK  196  A    between atoms: _474  and  _475
REMARK  197  A    between atoms: _474  and  _477
REMARK  198  A    between atoms: _477  and  _478
REMARK  199  A    between atoms: _481  and  _483
REMARK  200  A    between atoms: _483  and  _484
REMARK  201  A    between atoms: _483  and  _486
REMARK  202  A    between atoms: _486  and  _487
REMARK  203  A    between atoms: _491  and  _492
REMARK  204  A    between atoms: _497  and  _499
REMARK  205  A    between atoms: _499  and  _500
REMARK  206  A    between atoms: _499  and  _502
REMARK  207  A    between atoms: _505  and  _507
REMARK  208  A    between atoms: _507  and  _508
REMARK  209  A    between atoms: _507  and  _510
REMARK  210  A    between atoms: _510  and  _511
REMARK  211  A    between atoms: _516  and  _518
REMARK  212  A    between atoms: _518  and  _519
REMARK  213  A    between atoms: _518  and  _521
REMARK  214  A    between atoms: _521  and  _522
REMARK  215  A    between atoms: _525  and  _527
REMARK  216  A    between atoms: _527  and  _528
REMARK  217  A    between atoms: _527  and  _530
REMARK  218  A    between atoms: _530  and  _531
REMARK  219  A    between atoms: _534  and  _536
REMARK  220  A    between atoms: _536  and  _537
REMARK  221  A    between atoms: _539  and  _541
REMARK  222  A    between atoms: _541  and  _542
REMARK  223  A    between atoms: _541  and  _544
REMARK  224  A    between atoms: _544  and  _545
REMARK  225  A    between atoms: _545  and  _546
REMARK  226  A    between atoms: _546  and  _547
REMARK  227  A    between atoms: _556  and  _558
REMARK  228  A    between atoms: _558  and  _559
REMARK  229  A    between atoms: _558  and  _561
REMARK  230  A    between atoms: _561  and  _562
REMARK                            x       y       z     vdW  Elec       q    Type
REMARK                         _______ _______ _______ _____ _____    ______ ____
ROOT
ATOM      1  NE  ARG A   1     -17.954  14.788  32.901  0.00  0.00    -0.265 N 
ATOM      2  HE  ARG A   1     -17.441  15.296  33.649  0.00  0.00    +0.259 HD
ATOM      3  CZ  ARG A   1     -17.530  13.566  32.577  0.00  0.00    +0.342 C 
ATOM      4  NH2 ARG A   1     -16.482  13.045  33.202  0.00  0.00    -0.292 N 
ATOM      5 HH21 ARG A   1     -15.994  13.589  33.942  0.00  0.00    +0.255 HD
ATOM      6 HH22 ARG A   1     -16.148  12.092  32.952  0.00  0.00    +0.255 HD
ATOM      7  NH1 ARG A   1     -18.150  12.858  31.627  0.00  0.00    -0.292 N 
ATOM      8 HH11 ARG A   1     -17.810  11.906  31.383  0.00  0.00    +0.255 HD
ATOM      9 HH12 ARG A   1     -18.972  13.259  31.132  0.00  0.00    +0.255 HD
ENDROOT
BRANCH   1  10
ATOM     10  CD  ARG A   1     -19.092  15.463  32.276  0.00  0.00    +0.174 C 
BRANCH  10  11
ATOM     11  CG  ARG A   1     -19.247  16.899  32.769  0.00  0.00    +0.045 C 
BRANCH  11  12
ATOM     12  CB  ARG A   1     -20.331  17.610  31.974  0.00  0.00    +0.029 C 
BRANCH  12  13
ATOM     13  CA  ARG A   1     -20.527  19.071  32.355  0.00  0.00    +0.133 C 
BRANCH  13  14
ATOM     14  N   ARG A   1     -21.124  19.215  33.696  0.00  0.00    -0.239 NA
ATOM     15  H   ARG A   1     -21.351  18.370  34.258  0.00  0.00    +0.142 HD
ENDBRANCH  13  14
BRANCH  13  16
ATOM     16  C   ARG A   1     -21.411  19.734  31.307  0.00  0.00    +0.224 C 
ATOM     17  O   ARG A   1     -22.654  19.572  31.346  0.00  0.00    -0.287 OA
ENDBRANCH  13  16
ENDBRANCH  12  13
ENDBRANCH  11  12
ENDBRANCH  10  11
ENDBRANCH   1  10
TORSDOF 6
REMARK  Name = ../refined-set-2016/2pyn/2pyn_pocket.pdb
REMARK  230 active torsions:
REMARK  status: ('A' for Active; 'I' for Inactive)
REMARK    1  A    between atoms: _1  and  _3
REMARK    2  A    between atoms: _3  and  _4
REMARK    3  A    between atoms: _3  and  _6
REMARK    4  A    between atoms: _6  and  _7
REMARK    5  A    between atoms: _7  and  _8
REMARK    6  A    between atoms: _8  and  _9
REMARK    7  A    between atoms: _18  and  _20
REMARK    8  A    between atoms: _20  and  _21
REMARK    9  A    between atoms: _20  and  _23
REMARK   10  A    between atoms: _23  and  _24
REMARK   11  A    between atoms: _27  and  _29
REMARK   12  A    between atoms: _29  and  _30
REMARK   13  A    between atoms: _29  and  _32
REMARK   14  A    between atoms: _32  and  _33
REMARK   15  A    between atoms: _36  and  _38
REMARK   16  A    between atoms: _38  and  _39
REMARK   17  A    between atoms: _38  and  _41
REMARK   18  A    between atoms: _41  and  _42
REMARK   19  A    between atoms: _45  and  _47
REMARK   20  A    between atoms: _47  and  _48
REMARK   21  A    between atoms: _47  and  _50
REMARK   22  A    between atoms: _50  and  _51
REMARK   23  A    between atoms: _54  and  _56
REMARK   24  A    between atoms: _56  and  _57
REMARK   25  A    between atoms: _59  and  _61
REMARK   26  A    between atoms: _61  and  _62
REMARK   27  A    between atoms: _65  and  _67
REMARK   28  A    between atoms: _67  and  _68
REMARK   29  A    between atoms: _67  and  _70
REMARK   30  A    between atoms: _70  and  _71
REMARK   31  A    between atoms: _74  and  _76
REMARK   32  A    between atoms: _76  and  _77
REMARK   33  A    between atoms: _76  and  _79
REMARK   34  A    between atoms: _79  and  _80
REMARK   35  A    between atoms: _85  and  _87
REMARK   36  A    between atoms: _87  and  _88
REMARK   37  A    between atoms: _87  and  _90
REMARK   38  A    between atoms: _90  and  _91
REMARK   39  A    between atoms: _94  and  _96
REMARK   40  A    between atoms: _96  and  _97
REMARK   41  A    between atoms: _96  and  _99
REMARK   42  A    between atoms: _102  and  _104
REMARK   43  A    between atoms: _104  and  _105
REMARK   44  A    between atoms: _104  and  _107
REMARK   45  A    between atoms: _107  and  _108
REMARK   46  A    between atoms: _108  and  _109
REMARK   47  A    between atoms: _109  and  _110
REMARK   48  A    between atoms: _110  and  _111
REMARK   49  A    between atoms: _115  and  _117
REMARK   50  A    between atoms: _117  and  _118
REMARK   51  A    between atoms: _117  and  _120
REMARK   52  A    between atoms: _120  and  _121
REMARK   53  A    between atoms: _121  and  _122
REMARK   54  A    between atoms: _124  and  _126
REMARK   55  A    between atoms: _126  and  _127
REMARK   56  A    between atoms: _126  and  _129
REMARK   57  A    between atoms: _129  and  _130
REMARK   58  A    between atoms: _133  and  _135
REMARK   59  A    between atoms: _135  and  _136
REMARK   60  A    between atoms: _138  and  _140
REMARK   61  A    between atoms: _140  and  _141
REMARK   62  A    between atoms: _143  and  _145
REMARK   63  A    between atoms: _145  and  _146
REMARK   64  A    between atoms: _145  and  _148
REMARK   65  A    between atoms: _148  and  _149
REMARK   66  A    between atoms: _152  and  _154
REMARK   67  A    between atoms: _154  and  _155
REMARK   68  A    between atoms: _157  and  _159
REMARK   69  A    between atoms: _159  and  _160
REMARK   70  A    between atoms: _162  and  _164
REMARK   71  A    between atoms: _164  and  _165
REMARK   72  A    between atoms: _164  and  _167
REMARK   73  A    between atoms: _167  and  _168
REMARK   74  A    between atoms: _171  and  _173
REMARK   75  A    between atoms: _173  and  _174
REMARK   76  A    between atoms: _173  and  _176
REMARK   77  A    between atoms: _176  and  _177
REMARK   78  A    between atoms: _181  and  _182
REMARK   79  A    between atoms: _187  and  _189
REMARK   80  A    between atoms: _189  and  _190
REMARK   81  A    between atoms: _189  and  _192
REMARK   82  A    between atoms: _192  and  _193
REMARK   83  A    between atoms: _197  and  _198
REMARK   84  A    between atoms: _203  and  _205
REMARK   85  A    between atoms: _205  and  _206
REMARK   86  A    between atoms: _205  and  _208
REMARK   87  A    between atoms: _211  and  _213
REMARK   88  A    between atoms: _213  and  _214
REMARK   89  A    between atoms: _213  and  _216
REMARK   90  A    between atoms: _216  and  _217
REMARK   91  A    between atoms: _222  and  _224
REMARK   92  A    between atoms: _224  and  _225
REMARK   93  A    between atoms: _224  and  _227
REMARK   94  A    between atoms: _227  and  _228
REMARK   95  A    between atoms: _231  and  _233
REMARK   96  A    between atoms: _233  and  _234
REMARK   97  A    between atoms: _233  and  _236
REMARK   98  A    between atoms: _236  and  _237
REMARK   99  A    between atoms: _240  and  _242
REMARK  100  A    between atoms: _242  and  _243
REMARK  101  A    between atoms: _245  and  _247
REMARK  102  A    between atoms: _247  and  _248
REMARK  103  A    between atoms: _247  and  _250
REMARK  104  A    between atoms: _250  and  _251
REMARK  105  A    between atoms: _251  and  _252
REMARK  106  A    between atoms: _252  and  _253
REMARK  107  A    between atoms: _262  and  _264
REMARK  108  A    between atoms: _264  and  _265
REMARK  109  A    between atoms: _264  and  _267
REMARK  110  A    between atoms: _267  and  _268
REMARK  111  A    between atoms: _273  and  _275
REMARK  112  A    between atoms: _275  and  _276
REMARK  113  A    between atoms: _275  and  _278
REMARK  114  A    between atoms: _278  and  _279
REMARK  115  A    between atoms: _279  and  _280
REMARK  116  A    between atoms: _280  and  _281
REMARK  117  A    between atoms: _290  and  _292
REMARK  118  A    between atoms: _292  and  _293
REMARK  119  A    between atoms: _292  and  _295
REMARK  120  A    between atoms: _295  and  _296
REMARK  121  A    between atoms: _299  and  _301
REMARK  122  A    between atoms: _301  and  _302
REMARK  123  A    between atoms: _301  and  _304
REMARK  124  A    between atoms: _304  and  _305
REMARK  125  A    between atoms: _308  and  _310
REMARK  126  A    between atoms: _310  and  _311
REMARK  127  A    between atoms: _310  and  _313
REMARK  128  A    between atoms: _313  and  _314
REMARK  129  A    between atoms: _317  and  _319
REMARK  130  A    between atoms: _319  and  _320
REMARK  131  A    between atoms: _319  and  _322
REMARK  132  A    between atoms: _322  and  _323
REMARK  133  A    between atoms: _326  and  _328
REMARK  134  A    between atoms: _328  and  _329
REMARK  135  A    between atoms: _328  and  _331
REMARK  136  A    between atoms: _331  and  _332
REMARK  137  A    between atoms: _335  and  _337
REMARK  138  A    between atoms: _337  and  _338
REMARK  139  A    between atoms: _340  and  _342
REMARK  140  A    between atoms: _342  and  _343
REMARK  141  A    between atoms: _346  and  _348
REMARK  142  A    between atoms: _348  and  _349
REMARK  143  A    between atoms: _348  and  _351
REMARK  144  A    between atoms: _351  and  _352
REMARK  145  A    between atoms: _355  and  _357
REMARK  146  A    between atoms: _357  and  _358
REMARK  147  A    between atoms: _357  and  _360
REMARK  148  A    between atoms: _360  and  _361
REMARK  149  A    between atoms: _366  and  _368
REMARK  150  A    between atoms: _368  and  _369
REMARK  151  A    between atoms: _368  and  _371
REMARK  152  A    between atoms: _371  and  _372
REMARK  153  A    between atoms: _375  and  _377
REMARK  154  A    between atoms: _377  and  _378
REMARK  155  A    between atoms: _377  and  _380
REMARK  156  A    between atoms: _383  and  _385
REMARK  157  A    between atoms: _385  and  _386
REMARK  158  A    between atoms: _385  and  _388
REMARK  159  A    between atoms: _388  and  _389
REMARK  160  A    between atoms: _389  and  _390
REMARK  161  A    between atoms: _390  and  _391
REMARK  162  A    between atoms: _391  and  _392
REMARK  163  A    between atoms: _396  and  _398
REMARK  164  A    between atoms: _398  and  _399
REMARK  165  A    between atoms: _398  and  _401
REMARK  166  A    between atoms: _401  and  _402
REMARK  167  A    between atoms: _402  and  _403
REMARK  168  A    between atoms: _405  and  _407
REMARK  169  A    between atoms: _407  and  _408
REMARK  170  A    between atoms: _407  and  _410
REMARK  171  A    between atoms: _410  and  _411
REMARK  172  A    between atoms: _414  and  _416
REMARK  173  A    between atoms: _416  and  _417
REMARK  174  A    between atoms: _419  and  _421
REMARK  175  A    between atoms: _421  and  _422
REMARK  176  A    between atoms: _424  and  _426
REMARK  177  A    between atoms: _426  and  _427
REMARK  178  A    between atoms: _426  and  _429
REMARK  179  A    between atoms: _429  and  _430
REMARK  180  A    between atoms: _433  and  _435
REMARK  181  A    between atoms: _435  and  _436
REMARK  182  A    between atoms: _438  and  _440
REMARK  183  A    between atoms: _440  and  _441
REMARK  184  A    between atoms: _443  and  _445
REMARK  185  A    between atoms: _445  and  _446
REMARK  186  A    between atoms: _445  and  _448
REMARK  187  A    between atoms: _448  and  _449
REMARK  188  A    between atoms: _455  and  _457
REMARK  189  A    between atoms: _457  and  _458
REMARK  190  A    between atoms: _457  and  _460
REMARK  191  A    between atoms: _460  and  _461
REMARK  192  A    between atoms: _464  and  _466
REMARK  193  A    between atoms: _466  and  _467
REMARK  194  A    between atoms: _466  and  _469
REMARK  195  A    between atoms: _472  and  _474
REMARK  196  A    between atoms: _474  and  _475
REMARK  197  A    between atoms: _474  and  _477
REMARK  198  A    between atoms: _477  and  _478
REMARK  199  A    between atoms: _481  and  _483
REMARK  200  A    between atoms: _483  and  _484
REMARK  201  A    between atoms: _483  and  _486
REMARK  202  A    between atoms: _486  and  _487
REMARK  203  A    between atoms: _491  and  _492
REMARK  204  A    between atoms: _497  and  _499
REMARK  205  A    between atoms: _499  and  _500
REMARK  206  A    between atoms: _499  and  _502
REMARK  207  A    between atoms: _505  and  _507
REMARK  208  A    between atoms: _507  and  _508
REMARK  209  A    between atoms: _507  and  _510
REMARK  210  A    between atoms: _510  and  _511
REMARK  211  A    between atoms: _516  and  _518
REMARK  212  A    between atoms: _518  and  _519
REMARK  213  A    between atoms: _518  and  _521
REMARK  214  A    between atoms: _521  and  _522
REMARK  215  A    between atoms: _525  and  _527
REMARK  216  A    between atoms: _527  and  _528
REMARK  217  A    between atoms: _527  and  _530
REMARK  218  A    between atoms: _530  and  _531
REMARK  219  A    between atoms: _534  and  _536
REMARK  220  A    between atoms: _536  and  _537
REMARK  221  A    between atoms: _539  and  _541
REMARK  222  A    between atoms: _541  and  _542
REMARK  223  A    between atoms: _541  and  _544
REMARK  224  A    between atoms: _544  and  _545
REMARK  225  A    between atoms: _545  and  _546
REMARK  226  A    between atoms: _546  and  _547
REMARK  227  A    between atoms: _556  and  _558
REMARK  228  A    between atoms: _558  and  _559
REMARK  229  A    between atoms: _558  and  _561
REMARK  230  A    between atoms: _561  and  _562
REMARK                            x       y       z     vdW  Elec       q    Type
REMARK                         _______ _______ _______ _____ _____    ______ ____
ROOT
ATOM      1  C   GLY A   5      -9.254  20.900  24.511  0.00  0.00    +0.243 C 
ATOM      2  O   GLY A   5      -8.137  20.386  24.436  0.00  0.00    -0.273 OA
ATOM      3  N   ALA A   6     -10.222  20.628  23.633  0.00  0.00    -0.297 N 
ATOM      4  H   ALA A   6     -11.150  21.084  23.747  0.00  0.00    +0.150 HD
ENDROOT
BRANCH   3   5
ATOM      5  CA  ALA A   6     -10.017  19.707  22.515  0.00  0.00    +0.149 C 
ATOM      6  CB  ALA A   6     -11.241  18.741  22.397  0.00  0.00    +0.031 C 
BRANCH   5   7
ATOM      7  C   ALA A   6      -9.868  20.499  21.223  0.00  0.00    +0.241 C 
ATOM      8  O   ALA A   6     -10.728  21.308  20.897  0.00  0.00    -0.273 OA
ATOM      9  N   ASP A   7      -8.784  20.263  20.487  0.00  0.00    -0.297 N 
ATOM     10  H   ASP A   7      -8.055  19.620  20.857  0.00  0.00    +0.150 HD
BRANCH   9  11
ATOM     11  CA  ASP A   7      -8.583  20.882  19.169  0.00  0.00    +0.160 C 
BRANCH  11  12
ATOM     12  C   ASP A   7      -9.588  20.357  18.151  0.00  0.00    +0.241 C 
ATOM     13  N   ASN A   8      -9.979  19.090  18.322  0.00  0.00    -0.297 N 
ATOM     14  H   ASN A   8      -9.705  18.610  19.203  0.00  0.00    +0.150 HD
ATOM     15  O   ASP A   7      -9.984  21.091  17.231  0.00  0.00    -0.273 OA
BRANCH  13  16
ATOM     16  CA  ASN A   8     -10.765  18.339  17.352  0.00  0.00    +0.158 C 
BRANCH  16  17
ATOM     17  C   ASN A   8     -12.064  17.794  17.939  0.00  0.00    +0.241 C 
ATOM     18  O   ASN A   8     -12.225  17.707  19.159  0.00  0.00    -0.273 OA
ATOM     19  N   THR A   9     -12.944  17.354  17.044  0.00  0.00    -0.295 N 
ATOM     20  H   THR A   9     -12.723  17.450  16.032  0.00  0.00    +0.150 HD
BRANCH  19  21
ATOM     21  CA  THR A   9     -14.205  16.743  17.432  0.00  0.00    +0.176 C 
BRANCH  21  22
ATOM     22  C   THR A   9     -14.097  15.222  17.279  0.00  0.00    +0.243 C 
ATOM     23  N   VAL A  10     -14.385  14.500  18.360  0.00  0.00    -0.298 N 
ATOM     24  H   VAL A  10     -14.785  14.978  19.193  0.00  0.00    +0.150 HD
ATOM     25  O   THR A   9     -13.731  14.725  16.214  0.00  0.00    -0.273 OA
BRANCH  23  26
ATOM     26  CA  VAL A  10     -14.157  13.053  18.415  0.00  0.00    +0.137 C 
BRANCH  26  27
ATOM     27  CB  VAL A  10     -12.997  12.651  19.372  0.00  0.00    +0.026 C 
ATOM     28  CG2 VAL A  10     -11.794  13.554  19.188  0.00  0.00    +0.002 C 
ATOM     29  CG1 VAL A  10     -12.599  11.186  19.135  0.00  0.00    +0.002 C 
ENDBRANCH  26  27
BRANCH  26  30
ATOM     30  C   VAL A  10     -15.437  12.385  18.888  0.00  0.00    +0.227 C 
ATOM     31  O   VAL A  10     -15.926  12.664  19.991  0.00  0.00    -0.286 OA
ENDBRANCH  26  30
ENDBRANCH  23  26
ENDBRANCH  21  22
BRANCH  21  32
ATOM     32  CB  THR A   9     -15.323  17.360  16.585  0.00  0.00    +0.137 C 
ATOM     33  CG2 THR A   9     -16.676  16.644  16.772  0.00  0.00    +0.034 C 
BRANCH  32  34
ATOM     34  OG1 THR A   9     -15.451  18.742  16.947  0.00  0.00    -0.382 OA
ATOM     35  HG1 THR A   9     -14.595  19.208  16.773  0.00  0.00    +0.210 HD
ENDBRANCH  32  34
ENDBRANCH  21  32
ENDBRANCH  19  21
ENDBRANCH  16  17
BRANCH  16  36
ATOM     36  CB  ASN A   8      -9.968  17.130  16.848  0.00  0.00    +0.114 C 
BRANCH  36  37
ATOM     37  CG  ASN A   8      -8.537  17.472  16.485  0.00  0.00    +0.222 C 
ATOM     38  ND2 ASN A   8      -7.595  17.074  17.335  0.00  0.00    -0.329 N 
ATOM     39 HD21 ASN A   8      -7.858  16.560  18.200  0.00  0.00    +0.145 HD
ATOM     40 HD22 ASN A   8      -6.595  17.277  17.135  0.00  0.00    +0.145 HD
ATOM     41  OD1 ASN A   8      -8.281  18.082  15.450  0.00  0.00    -0.275 OA
ENDBRANCH  36  37
ENDBRANCH  16  36
ENDBRANCH  13  16
ENDBRANCH  11  12
BRANCH  11  42
ATOM     42  CB  ASP A   7      -7.176  20.571  18.640  0.00  0.00    +0.143 C 
BRANCH  42  43
ATOM     43  CG  ASP A   7      -6.065  21.092  19.539  0.00  0.00    +0.367 C 
ATOM     44  OD2 ASP A   7      -6.285  22.024  20.347  0.00  0.00    -0.246 OA
ATOM     45  OD1 ASP A   7      -4.921  20.590  19.394  0.00  0.00    -0.246 OA
ENDBRANCH  42  43
ENDBRANCH  11  42
ENDBRANCH   9  11
ENDBRANCH   5   7
ENDBRANCH   3   5
BRANCH   1  46
ATOM     46  CA  GLY A   5      -9.589  21.858  25.654  0.00  0.00    +0.176 C 
BRANCH  46  48
ATOM     47  C   THR A   4     -11.188  23.533  24.836  0.00  0.00    +0.243 C 
ATOM     48  N   GLY A   5     -10.933  22.454  25.578  0.00  0.00    -0.295 N 
ATOM     49  H   GLY A   5     -11.708  22.020  26.120  0.00  0.00    +0.150 HD
ATOM     50  O   THR A   4     -10.317  24.130  24.196  0.00  0.00    -0.273 OA
BRANCH  47  51
ATOM     51  CA  THR A   4     -12.636  24.027  24.813  0.00  0.00    +0.176 C 
BRANCH  51  53
ATOM     52  C   ASP A   3     -13.814  21.927  24.489  0.00  0.00    +0.241 C 
ATOM     53  N   THR A   4     -13.586  22.987  25.248  0.00  0.00    -0.295 N 
ATOM     54  H   THR A   4     -14.080  23.087  26.157  0.00  0.00    +0.150 HD
ATOM     55  O   ASP A   3     -13.211  21.719  23.437  0.00  0.00    -0.273 OA
BRANCH  52  56
ATOM     56  CA  ASP A   3     -14.855  20.947  25.014  0.00  0.00    +0.160 C 
BRANCH  56  59
ATOM     57  C   LEU A   2     -17.226  21.343  25.228  0.00  0.00    +0.241 C 
ATOM     58  O   LEU A   2     -17.123  21.555  26.443  0.00  0.00    -0.273 OA
ATOM     59  N   ASP A   3     -16.170  21.195  24.436  0.00  0.00    -0.297 N 
ATOM     60  H   ASP A   3     -16.281  21.256  23.404  0.00  0.00    +0.150 HD
BRANCH  57  61
ATOM     61  CA  LEU A   2     -18.596  21.186  24.569  0.00  0.00    +0.149 C 
BRANCH  61  63
ATOM     62  C   LEU A   1     -18.843  18.759  24.779  0.00  0.00    +0.238 C 
ATOM     63  N   LEU A   2     -19.246  19.989  25.126  0.00  0.00    -0.297 N 
ATOM     64  H   LEU A   2     -20.031  20.099  25.800  0.00  0.00    +0.150 HD
ATOM     65  O   LEU A   1     -17.980  18.549  23.913  0.00  0.00    -0.274 OA
BRANCH  62  66
ATOM     66  CA  LEU A   1     -19.481  17.580  25.517  0.00  0.00    +0.145 C 
BRANCH  66  67
ATOM     67  N   LEU A   1     -20.019  16.643  24.547  0.00  0.00    -0.238 NA
ATOM     68  H   LEU A   1     -19.377  15.952  24.108  0.00  0.00    +0.142 HD
ENDBRANCH  66  67
BRANCH  66  69
ATOM     69  CB  LEU A   1     -18.411  16.850  26.339  0.00  0.00    +0.026 C 
BRANCH  69  70
ATOM     70  CG  LEU A   1     -17.640  17.527  27.477  0.00  0.00    +0.002 C 
ATOM     71  CD2 LEU A   1     -18.532  17.712  28.671  0.00  0.00    +0.000 C 
ATOM     72  CD1 LEU A   1     -16.472  16.631  27.881  0.00  0.00    +0.000 C 
ENDBRANCH  69  70
ENDBRANCH  66  69
ENDBRANCH  62  66
ENDBRANCH  61  63
BRANCH  61  73
ATOM     73  CB  LEU A   2     -19.441  22.432  24.806  0.00  0.00    +0.029 C 
BRANCH  73  74
ATOM     74  CG  LEU A   2     -20.846  22.465  24.190  0.00  0.00    +0.002 C 
ATOM     75  CD2 LEU A   2     -21.498  23.810  24.537  0.00  0.00    +0.000 C 
ATOM     76  CD1 LEU A   2     -20.811  22.218  22.668  0.00  0.00    +0.000 C 
ENDBRANCH  73  74
ENDBRANCH  61  73
ENDBRANCH  57  61
ENDBRANCH  56  59
BRANCH  56  77
ATOM     77  CB  ASP A   3     -14.434  19.485  24.767  0.00  0.00    +0.143 C 
BRANCH  77  78
ATOM     78  CG  ASP A   3     -13.118  19.113  25.457  0.00  0.00    +0.367 C 
ATOM     79  OD2 ASP A   3     -12.482  19.969  26.088  0.00  0.00    -0.246 OA
ATOM     80  OD1 ASP A   3     -12.753  17.926  25.390  0.00  0.00    -0.246 OA
ENDBRANCH  77  78
ENDBRANCH  56  77
ENDBRANCH  52  56
ENDBRANCH  51  53
BRANCH  51  81
ATOM     81  CB  THR A   4     -12.753  25.302  25.664  0.00  0.00    +0.137 C 
ATOM     82  CG2 THR A   4     -14.132  25.941  25.502  0.00  0.00    +0.034 C 
BRANCH  81  83
ATOM     83  OG1 THR A   4     -12.543  24.973  27.055  0.00  0.00    -0.382 OA
ATOM     84  HG1 THR A   4     -11.641  24.582  27.168  0.00  0.00    +0.210 HD
ENDBRANCH  81  83
ENDBRANCH  51  81
ENDBRANCH  47  51
ENDBRANCH  46  48
ENDBRANCH   1  46
TORSDOF 35
REMARK  Name = ../refined-set-2016/2pyn/2pyn_pocket.pdb
REMARK  230 active torsions:
REMARK  status: ('A' for Active; 'I' for Inactive)
REMARK    1  A    between atoms: _1  and  _3
REMARK    2  A    between atoms: _3  and  _4
REMARK    3  A    between atoms: _3  and  _6
REMARK    4  A    between atoms: _6  and  _7
REMARK    5  A    between atoms: _7  and  _8
REMARK    6  A    between atoms: _8  and  _9
REMARK    7  A    between atoms: _18  and  _20
REMARK    8  A    between atoms: _20  and  _21
REMARK    9  A    between atoms: _20  and  _23
REMARK   10  A    between atoms: _23  and  _24
REMARK   11  A    between atoms: _27  and  _29
REMARK   12  A    between atoms: _29  and  _30
REMARK   13  A    between atoms: _29  and  _32
REMARK   14  A    between atoms: _32  and  _33
REMARK   15  A    between atoms: _36  and  _38
REMARK   16  A    between atoms: _38  and  _39
REMARK   17  A    between atoms: _38  and  _41
REMARK   18  A    between atoms: _41  and  _42
REMARK   19  A    between atoms: _45  and  _47
REMARK   20  A    between atoms: _47  and  _48
REMARK   21  A    between atoms: _47  and  _50
REMARK   22  A    between atoms: _50  and  _51
REMARK   23  A    between atoms: _54  and  _56
REMARK   24  A    between atoms: _56  and  _57
REMARK   25  A    between atoms: _59  and  _61
REMARK   26  A    between atoms: _61  and  _62
REMARK   27  A    between atoms: _65  and  _67
REMARK   28  A    between atoms: _67  and  _68
REMARK   29  A    between atoms: _67  and  _70
REMARK   30  A    between atoms: _70  and  _71
REMARK   31  A    between atoms: _74  and  _76
REMARK   32  A    between atoms: _76  and  _77
REMARK   33  A    between atoms: _76  and  _79
REMARK   34  A    between atoms: _79  and  _80
REMARK   35  A    between atoms: _85  and  _87
REMARK   36  A    between atoms: _87  and  _88
REMARK   37  A    between atoms: _87  and  _90
REMARK   38  A    between atoms: _90  and  _91
REMARK   39  A    between atoms: _94  and  _96
REMARK   40  A    between atoms: _96  and  _97
REMARK   41  A    between atoms: _96  and  _99
REMARK   42  A    between atoms: _102  and  _104
REMARK   43  A    between atoms: _104  and  _105
REMARK   44  A    between atoms: _104  and  _107
REMARK   45  A    between atoms: _107  and  _108
REMARK   46  A    between atoms: _108  and  _109
REMARK   47  A    between atoms: _109  and  _110
REMARK   48  A    between atoms: _110  and  _111
REMARK   49  A    between atoms: _115  and  _117
REMARK   50  A    between atoms: _117  and  _118
REMARK   51  A    between atoms: _117  and  _120
REMARK   52  A    between atoms: _120  and  _121
REMARK   53  A    between atoms: _121  and  _122
REMARK   54  A    between atoms: _124  and  _126
REMARK   55  A    between atoms: _126  and  _127
REMARK   56  A    between atoms: _126  and  _129
REMARK   57  A    between atoms: _129  and  _130
REMARK   58  A    between atoms: _133  and  _135
REMARK   59  A    between atoms: _135  and  _136
REMARK   60  A    between atoms: _138  and  _140
REMARK   61  A    between atoms: _140  and  _141
REMARK   62  A    between atoms: _143  and  _145
REMARK   63  A    between atoms: _145  and  _146
REMARK   64  A    between atoms: _145  and  _148
REMARK   65  A    between atoms: _148  and  _149
REMARK   66  A    between atoms: _152  and  _154
REMARK   67  A    between atoms: _154  and  _155
REMARK   68  A    between atoms: _157  and  _159
REMARK   69  A    between atoms: _159  and  _160
REMARK   70  A    between atoms: _162  and  _164
REMARK   71  A    between atoms: _164  and  _165
REMARK   72  A    between atoms: _164  and  _167
REMARK   73  A    between atoms: _167  and  _168
REMARK   74  A    between atoms: _171  and  _173
REMARK   75  A    between atoms: _173  and  _174
REMARK   76  A    between atoms: _173  and  _176
REMARK   77  A    between atoms: _176  and  _177
REMARK   78  A    between atoms: _181  and  _182
REMARK   79  A    between atoms: _187  and  _189
REMARK   80  A    between atoms: _189  and  _190
REMARK   81  A    between atoms: _189  and  _192
REMARK   82  A    between atoms: _192  and  _193
REMARK   83  A    between atoms: _197  and  _198
REMARK   84  A    between atoms: _203  and  _205
REMARK   85  A    between atoms: _205  and  _206
REMARK   86  A    between atoms: _205  and  _208
REMARK   87  A    between atoms: _211  and  _213
REMARK   88  A    between atoms: _213  and  _214
REMARK   89  A    between atoms: _213  and  _216
REMARK   90  A    between atoms: _216  and  _217
REMARK   91  A    between atoms: _222  and  _224
REMARK   92  A    between atoms: _224  and  _225
REMARK   93  A    between atoms: _224  and  _227
REMARK   94  A    between atoms: _227  and  _228
REMARK   95  A    between atoms: _231  and  _233
REMARK   96  A    between atoms: _233  and  _234
REMARK   97  A    between atoms: _233  and  _236
REMARK   98  A    between atoms: _236  and  _237
REMARK   99  A    between atoms: _240  and  _242
REMARK  100  A    between atoms: _242  and  _243
REMARK  101  A    between atoms: _245  and  _247
REMARK  102  A    between atoms: _247  and  _248
REMARK  103  A    between atoms: _247  and  _250
REMARK  104  A    between atoms: _250  and  _251
REMARK  105  A    between atoms: _251  and  _252
REMARK  106  A    between atoms: _252  and  _253
REMARK  107  A    between atoms: _262  and  _264
REMARK  108  A    between atoms: _264  and  _265
REMARK  109  A    between atoms: _264  and  _267
REMARK  110  A    between atoms: _267  and  _268
REMARK  111  A    between atoms: _273  and  _275
REMARK  112  A    between atoms: _275  and  _276
REMARK  113  A    between atoms: _275  and  _278
REMARK  114  A    between atoms: _278  and  _279
REMARK  115  A    between atoms: _279  and  _280
REMARK  116  A    between atoms: _280  and  _281
REMARK  117  A    between atoms: _290  and  _292
REMARK  118  A    between atoms: _292  and  _293
REMARK  119  A    between atoms: _292  and  _295
REMARK  120  A    between atoms: _295  and  _296
REMARK  121  A    between atoms: _299  and  _301
REMARK  122  A    between atoms: _301  and  _302
REMARK  123  A    between atoms: _301  and  _304
REMARK  124  A    between atoms: _304  and  _305
REMARK  125  A    between atoms: _308  and  _310
REMARK  126  A    between atoms: _310  and  _311
REMARK  127  A    between atoms: _310  and  _313
REMARK  128  A    between atoms: _313  and  _314
REMARK  129  A    between atoms: _317  and  _319
REMARK  130  A    between atoms: _319  and  _320
REMARK  131  A    between atoms: _319  and  _322
REMARK  132  A    between atoms: _322  and  _323
REMARK  133  A    between atoms: _326  and  _328
REMARK  134  A    between atoms: _328  and  _329
REMARK  135  A    between atoms: _328  and  _331
REMARK  136  A    between atoms: _331  and  _332
REMARK  137  A    between atoms: _335  and  _337
REMARK  138  A    between atoms: _337  and  _338
REMARK  139  A    between atoms: _340  and  _342
REMARK  140  A    between atoms: _342  and  _343
REMARK  141  A    between atoms: _346  and  _348
REMARK  142  A    between atoms: _348  and  _349
REMARK  143  A    between atoms: _348  and  _351
REMARK  144  A    between atoms: _351  and  _352
REMARK  145  A    between atoms: _355  and  _357
REMARK  146  A    between atoms: _357  and  _358
REMARK  147  A    between atoms: _357  and  _360
REMARK  148  A    between atoms: _360  and  _361
REMARK  149  A    between atoms: _366  and  _368
REMARK  150  A    between atoms: _368  and  _369
REMARK  151  A    between atoms: _368  and  _371
REMARK  152  A    between atoms: _371  and  _372
REMARK  153  A    between atoms: _375  and  _377
REMARK  154  A    between atoms: _377  and  _378
REMARK  155  A    between atoms: _377  and  _380
REMARK  156  A    between atoms: _383  and  _385
REMARK  157  A    between atoms: _385  and  _386
REMARK  158  A    between atoms: _385  and  _388
REMARK  159  A    between atoms: _388  and  _389
REMARK  160  A    between atoms: _389  and  _390
REMARK  161  A    between atoms: _390  and  _391
REMARK  162  A    between atoms: _391  and  _392
REMARK  163  A    between atoms: _396  and  _398
REMARK  164  A    between atoms: _398  and  _399
REMARK  165  A    between atoms: _398  and  _401
REMARK  166  A    between atoms: _401  and  _402
REMARK  167  A    between atoms: _402  and  _403
REMARK  168  A    between atoms: _405  and  _407
REMARK  169  A    between atoms: _407  and  _408
REMARK  170  A    between atoms: _407  and  _410
REMARK  171  A    between atoms: _410  and  _411
REMARK  172  A    between atoms: _414  and  _416
REMARK  173  A    between atoms: _416  and  _417
REMARK  174  A    between atoms: _419  and  _421
REMARK  175  A    between atoms: _421  and  _422
REMARK  176  A    between atoms: _424  and  _426
REMARK  177  A    between atoms: _426  and  _427
REMARK  178  A    between atoms: _426  and  _429
REMARK  179  A    between atoms: _429  and  _430
REMARK  180  A    between atoms: _433  and  _435
REMARK  181  A    between atoms: _435  and  _436
REMARK  182  A    between atoms: _438  and  _440
REMARK  183  A    between atoms: _440  and  _441
REMARK  184  A    between atoms: _443  and  _445
REMARK  185  A    between atoms: _445  and  _446
REMARK  186  A    between atoms: _445  and  _448
REMARK  187  A    between atoms: _448  and  _449
REMARK  188  A    between atoms: _455  and  _457
REMARK  189  A    between atoms: _457  and  _458
REMARK  190  A    between atoms: _457  and  _460
REMARK  191  A    between atoms: _460  and  _461
REMARK  192  A    between atoms: _464  and  _466
REMARK  193  A    between atoms: _466  and  _467
REMARK  194  A    between atoms: _466  and  _469
REMARK  195  A    between atoms: _472  and  _474
REMARK  196  A    between atoms: _474  and  _475
REMARK  197  A    between atoms: _474  and  _477
REMARK  198  A    between atoms: _477  and  _478
REMARK  199  A    between atoms: _481  and  _483
REMARK  200  A    between atoms: _483  and  _484
REMARK  201  A    between atoms: _483  and  _486
REMARK  202  A    between atoms: _486  and  _487
REMARK  203  A    between atoms: _491  and  _492
REMARK  204  A    between atoms: _497  and  _499
REMARK  205  A    between atoms: _499  and  _500
REMARK  206  A    between atoms: _499  and  _502
REMARK  207  A    between atoms: _505  and  _507
REMARK  208  A    between atoms: _507  and  _508
REMARK  209  A    between atoms: _507  and  _510
REMARK  210  A    between atoms: _510  and  _511
REMARK  211  A    between atoms: _516  and  _518
REMARK  212  A    between atoms: _518  and  _519
REMARK  213  A    between atoms: _518  and  _521
REMARK  214  A    between atoms: _521  and  _522
REMARK  215  A    between atoms: _525  and  _527
REMARK  216  A    between atoms: _527  and  _528
REMARK  217  A    between atoms: _527  and  _530
REMARK  218  A    between atoms: _530  and  _531
REMARK  219  A    between atoms: _534  and  _536
REMARK  220  A    between atoms: _536  and  _537
REMARK  221  A    between atoms: _539  and  _541
REMARK  222  A    between atoms: _541  and  _542
REMARK  223  A    between atoms: _541  and  _544
REMARK  224  A    between atoms: _544  and  _545
REMARK  225  A    between atoms: _545  and  _546
REMARK  226  A    between atoms: _546  and  _547
REMARK  227  A    between atoms: _556  and  _558
REMARK  228  A    between atoms: _558  and  _559
REMARK  229  A    between atoms: _558  and  _561
REMARK  230  A    between atoms: _561  and  _562
REMARK                            x       y       z     vdW  Elec       q    Type
REMARK                         _______ _______ _______ _____ _____    ______ ____
ROOT
ATOM      1  C   ILE A   3      -4.530  11.254  19.928  0.00  0.00    +0.241 C 
ATOM      2  N   GLY A   4      -3.806  12.183  20.535  0.00  0.00    -0.295 N 
ATOM      3  H   GLY A   4      -3.573  13.060  20.027  0.00  0.00    +0.150 HD
ATOM      4  O   ILE A   3      -4.868  10.199  20.469  0.00  0.00    -0.273 OA
ENDROOT
BRANCH   1   5
ATOM      5  CA  ILE A   3      -4.920  11.561  18.494  0.00  0.00    +0.149 C 
BRANCH   5   7
ATOM      6  C   MET A   2      -4.093  10.433  16.513  0.00  0.00    +0.241 C 
ATOM      7  N   ILE A   3      -4.791  10.384  17.642  0.00  0.00    -0.297 N 
ATOM      8  H   ILE A   3      -5.252   9.495  17.922  0.00  0.00    +0.150 HD
ATOM      9  O   MET A   2      -3.578  11.465  16.095  0.00  0.00    -0.273 OA
BRANCH   6  10
ATOM     10  CA  MET A   2      -3.983   9.139  15.719  0.00  0.00    +0.149 C 
BRANCH  10  12
ATOM     11  C   LYS A   1      -5.191   8.961  13.605  0.00  0.00    +0.238 C 
ATOM     12  N   MET A   2      -4.146   9.414  14.294  0.00  0.00    -0.297 N 
ATOM     13  H   MET A   2      -3.425   9.980  13.803  0.00  0.00    +0.150 HD
ATOM     14  O   LYS A   1      -5.970   8.117  14.050  0.00  0.00    -0.274 OA
BRANCH  11  15
ATOM     15  CA  LYS A   1      -5.378   9.524  12.200  0.00  0.00    +0.145 C 
BRANCH  15  16
ATOM     16  N   LYS A   1      -6.032   8.495  11.408  0.00  0.00    -0.238 NA
ATOM     17  H   LYS A   1      -6.690   7.844  11.882  0.00  0.00    +0.142 HD
ENDBRANCH  15  16
BRANCH  15  18
ATOM     18  CB  LYS A   1      -6.253  10.788  12.243  0.00  0.00    +0.026 C 
BRANCH  18  19
ATOM     19  CG  LYS A   1      -5.534  12.088  12.617  0.00  0.00    -0.000 C 
BRANCH  19  20
ATOM     20  CD  LYS A   1      -6.537  13.193  13.010  0.00  0.00    -0.024 C 
BRANCH  20  21
ATOM     21  CE  LYS A   1      -5.877  14.368  13.753  0.00  0.00    -0.086 C 
BRANCH  21  22
ATOM     22  NZ  LYS A   1      -5.028  15.254  12.878  0.00  0.00    +0.380 N 
ATOM     23  HZ1 LYS A   1      -4.621  16.019  13.453  0.00  0.00    -0.089 HD
ATOM     24  HZ2 LYS A   1      -4.263  14.691  12.456  0.00  0.00    -0.089 HD
ATOM     25  HZ3 LYS A   1      -5.617  15.661  12.124  0.00  0.00    -0.089 HD
ENDBRANCH  21  22
ENDBRANCH  20  21
ENDBRANCH  19  20
ENDBRANCH  18  19
ENDBRANCH  15  18
ENDBRANCH  11  15
ENDBRANCH  10  12
BRANCH  10  26
ATOM     26  CB  MET A   2      -2.650   8.435  15.992  0.00  0.00    +0.041 C 
BRANCH  26  27
ATOM     27  CG  MET A   2      -2.746   6.923  15.903  0.00  0.00    +0.060 C 
BRANCH  27  28
ATOM     28  SD  MET A   2      -1.186   6.113  16.230  0.00  0.00    -0.139 S 
ATOM     29  CE  MET A   2      -0.682   5.616  14.580  0.00  0.00    +0.069 C 
ENDBRANCH  27  28
ENDBRANCH  26  27
ENDBRANCH  10  26
ENDBRANCH   6  10
ENDBRANCH   5   7
BRANCH   5  30
ATOM     30  CB  ILE A   3      -6.332  12.213  18.427  0.00  0.00    +0.027 C 
ATOM     31  CG2 ILE A   3      -6.554  12.873  17.065  0.00  0.00    +0.002 C 
BRANCH  30  32
ATOM     32  CG1 ILE A   3      -7.425  11.196  18.730  0.00  0.00    +0.002 C 
ATOM     33  CD1 ILE A   3      -8.823  11.796  18.720  0.00  0.00    +0.000 C 
ENDBRANCH  30  32
ENDBRANCH   5  30
ENDBRANCH   1   5
BRANCH   2  34
ATOM     34  CA  GLY A   4      -3.334  12.001  21.889  0.00  0.00    +0.176 C 
BRANCH  34  35
ATOM     35  C   GLY A   4      -4.190  12.747  22.885  0.00  0.00    +0.243 C 
ATOM     36  N   GLY A   5      -4.546  12.059  23.957  0.00  0.00    -0.295 N 
ATOM     37  H   GLY A   5      -4.359  11.037  23.995  0.00  0.00    +0.150 HD
ATOM     38  O   GLY A   4      -4.544  13.911  22.683  0.00  0.00    -0.273 OA
BRANCH  36  39
ATOM     39  CA  GLY A   5      -5.191  12.708  25.076  0.00  0.00    +0.176 C 
BRANCH  39  40
ATOM     40  C   GLY A   5      -4.283  12.608  26.270  0.00  0.00    +0.243 C 
ATOM     41  N   ILE A   6      -4.838  12.876  27.439  0.00  0.00    -0.297 N 
ATOM     42  H   ILE A   6      -5.777  13.321  27.478  0.00  0.00    +0.150 HD
ATOM     43  O   GLY A   5      -3.096  12.294  26.150  0.00  0.00    -0.273 OA
BRANCH  41  44
ATOM     44  CA  ILE A   6      -4.145  12.553  28.656  0.00  0.00    +0.149 C 
BRANCH  44  45
ATOM     45  C   ILE A   6      -4.171  11.017  28.729  0.00  0.00    +0.241 C 
ATOM     46  N   GLY A   7      -3.052  10.394  29.064  0.00  0.00    -0.295 N 
ATOM     47  H   GLY A   7      -2.187  10.940  29.250  0.00  0.00    +0.150 HD
ATOM     48  O   ILE A   6      -5.191  10.398  28.428  0.00  0.00    -0.273 OA
BRANCH  46  49
ATOM     49  CA  GLY A   7      -3.037   8.929  29.172  0.00  0.00    +0.176 C 
BRANCH  49  50
ATOM     50  C   GLY A   7      -2.597   8.151  27.940  0.00  0.00    +0.243 C 
ATOM     51  O   GLY A   7      -2.208   6.985  28.043  0.00  0.00    -0.273 OA
ATOM     52  N   GLY A   8      -2.660   8.773  26.771  0.00  0.00    -0.296 N 
ATOM     53  H   GLY A   8      -3.110   9.708  26.705  0.00  0.00    +0.150 HD
BRANCH  52  54
ATOM     54  CA  GLY A   8      -2.102   8.151  25.579  0.00  0.00    +0.163 C 
BRANCH  54  55
ATOM     55  C   GLY A   8      -2.803   8.517  24.296  0.00  0.00    +0.229 C 
ATOM     56  O   GLY A   8      -3.429   9.576  24.206  0.00  0.00    -0.286 OA
ENDBRANCH  54  55
ENDBRANCH  52  54
ENDBRANCH  49  50
ENDBRANCH  46  49
ENDBRANCH  44  45
BRANCH  44  57
ATOM     57  CB  ILE A   6      -4.836  13.220  29.852  0.00  0.00    +0.027 C 
ATOM     58  CG2 ILE A   6      -5.713  12.240  30.594  0.00  0.00    +0.002 C 
BRANCH  57  59
ATOM     59  CG1 ILE A   6      -3.802  13.863  30.776  0.00  0.00    +0.002 C 
ATOM     60  CD1 ILE A   6      -4.382  14.889  31.733  0.00  0.00    +0.000 C 
ENDBRANCH  57  59
ENDBRANCH  44  57
ENDBRANCH  41  44
ENDBRANCH  39  40
ENDBRANCH  36  39
ENDBRANCH  34  35
ENDBRANCH   2  34
TORSDOF 28
REMARK  Name = ../refined-set-2016/2pyn/2pyn_pocket.pdb
REMARK  230 active torsions:
REMARK  status: ('A' for Active; 'I' for Inactive)
REMARK    1  A    between atoms: _1  and  _3
REMARK    2  A    between atoms: _3  and  _4
REMARK    3  A    between atoms: _3  and  _6
REMARK    4  A    between atoms: _6  and  _7
REMARK    5  A    between atoms: _7  and  _8
REMARK    6  A    between atoms: _8  and  _9
REMARK    7  A    between atoms: _18  and  _20
REMARK    8  A    between atoms: _20  and  _21
REMARK    9  A    between atoms: _20  and  _23
REMARK   10  A    between atoms: _23  and  _24
REMARK   11  A    between atoms: _27  and  _29
REMARK   12  A    between atoms: _29  and  _30
REMARK   13  A    between atoms: _29  and  _32
REMARK   14  A    between atoms: _32  and  _33
REMARK   15  A    between atoms: _36  and  _38
REMARK   16  A    between atoms: _38  and  _39
REMARK   17  A    between atoms: _38  and  _41
REMARK   18  A    between atoms: _41  and  _42
REMARK   19  A    between atoms: _45  and  _47
REMARK   20  A    between atoms: _47  and  _48
REMARK   21  A    between atoms: _47  and  _50
REMARK   22  A    between atoms: _50  and  _51
REMARK   23  A    between atoms: _54  and  _56
REMARK   24  A    between atoms: _56  and  _57
REMARK   25  A    between atoms: _59  and  _61
REMARK   26  A    between atoms: _61  and  _62
REMARK   27  A    between atoms: _65  and  _67
REMARK   28  A    between atoms: _67  and  _68
REMARK   29  A    between atoms: _67  and  _70
REMARK   30  A    between atoms: _70  and  _71
REMARK   31  A    between atoms: _74  and  _76
REMARK   32  A    between atoms: _76  and  _77
REMARK   33  A    between atoms: _76  and  _79
REMARK   34  A    between atoms: _79  and  _80
REMARK   35  A    between atoms: _85  and  _87
REMARK   36  A    between atoms: _87  and  _88
REMARK   37  A    between atoms: _87  and  _90
REMARK   38  A    between atoms: _90  and  _91
REMARK   39  A    between atoms: _94  and  _96
REMARK   40  A    between atoms: _96  and  _97
REMARK   41  A    between atoms: _96  and  _99
REMARK   42  A    between atoms: _102  and  _104
REMARK   43  A    between atoms: _104  and  _105
REMARK   44  A    between atoms: _104  and  _107
REMARK   45  A    between atoms: _107  and  _108
REMARK   46  A    between atoms: _108  and  _109
REMARK   47  A    between atoms: _109  and  _110
REMARK   48  A    between atoms: _110  and  _111
REMARK   49  A    between atoms: _115  and  _117
REMARK   50  A    between atoms: _117  and  _118
REMARK   51  A    between atoms: _117  and  _120
REMARK   52  A    between atoms: _120  and  _121
REMARK   53  A    between atoms: _121  and  _122
REMARK   54  A    between atoms: _124  and  _126
REMARK   55  A    between atoms: _126  and  _127
REMARK   56  A    between atoms: _126  and  _129
REMARK   57  A    between atoms: _129  and  _130
REMARK   58  A    between atoms: _133  and  _135
REMARK   59  A    between atoms: _135  and  _136
REMARK   60  A    between atoms: _138  and  _140
REMARK   61  A    between atoms: _140  and  _141
REMARK   62  A    between atoms: _143  and  _145
REMARK   63  A    between atoms: _145  and  _146
REMARK   64  A    between atoms: _145  and  _148
REMARK   65  A    between atoms: _148  and  _149
REMARK   66  A    between atoms: _152  and  _154
REMARK   67  A    between atoms: _154  and  _155
REMARK   68  A    between atoms: _157  and  _159
REMARK   69  A    between atoms: _159  and  _160
REMARK   70  A    between atoms: _162  and  _164
REMARK   71  A    between atoms: _164  and  _165
REMARK   72  A    between atoms: _164  and  _167
REMARK   73  A    between atoms: _167  and  _168
REMARK   74  A    between atoms: _171  and  _173
REMARK   75  A    between atoms: _173  and  _174
REMARK   76  A    between atoms: _173  and  _176
REMARK   77  A    between atoms: _176  and  _177
REMARK   78  A    between atoms: _181  and  _182
REMARK   79  A    between atoms: _187  and  _189
REMARK   80  A    between atoms: _189  and  _190
REMARK   81  A    between atoms: _189  and  _192
REMARK   82  A    between atoms: _192  and  _193
REMARK   83  A    between atoms: _197  and  _198
REMARK   84  A    between atoms: _203  and  _205
REMARK   85  A    between atoms: _205  and  _206
REMARK   86  A    between atoms: _205  and  _208
REMARK   87  A    between atoms: _211  and  _213
REMARK   88  A    between atoms: _213  and  _214
REMARK   89  A    between atoms: _213  and  _216
REMARK   90  A    between atoms: _216  and  _217
REMARK   91  A    between atoms: _222  and  _224
REMARK   92  A    between atoms: _224  and  _225
REMARK   93  A    between atoms: _224  and  _227
REMARK   94  A    between atoms: _227  and  _228
REMARK   95  A    between atoms: _231  and  _233
REMARK   96  A    between atoms: _233  and  _234
REMARK   97  A    between atoms: _233  and  _236
REMARK   98  A    between atoms: _236  and  _237
REMARK   99  A    between atoms: _240  and  _242
REMARK  100  A    between atoms: _242  and  _243
REMARK  101  A    between atoms: _245  and  _247
REMARK  102  A    between atoms: _247  and  _248
REMARK  103  A    between atoms: _247  and  _250
REMARK  104  A    between atoms: _250  and  _251
REMARK  105  A    between atoms: _251  and  _252
REMARK  106  A    between atoms: _252  and  _253
REMARK  107  A    between atoms: _262  and  _264
REMARK  108  A    between atoms: _264  and  _265
REMARK  109  A    between atoms: _264  and  _267
REMARK  110  A    between atoms: _267  and  _268
REMARK  111  A    between atoms: _273  and  _275
REMARK  112  A    between atoms: _275  and  _276
REMARK  113  A    between atoms: _275  and  _278
REMARK  114  A    between atoms: _278  and  _279
REMARK  115  A    between atoms: _279  and  _280
REMARK  116  A    between atoms: _280  and  _281
REMARK  117  A    between atoms: _290  and  _292
REMARK  118  A    between atoms: _292  and  _293
REMARK  119  A    between atoms: _292  and  _295
REMARK  120  A    between atoms: _295  and  _296
REMARK  121  A    between atoms: _299  and  _301
REMARK  122  A    between atoms: _301  and  _302
REMARK  123  A    between atoms: _301  and  _304
REMARK  124  A    between atoms: _304  and  _305
REMARK  125  A    between atoms: _308  and  _310
REMARK  126  A    between atoms: _310  and  _311
REMARK  127  A    between atoms: _310  and  _313
REMARK  128  A    between atoms: _313  and  _314
REMARK  129  A    between atoms: _317  and  _319
REMARK  130  A    between atoms: _319  and  _320
REMARK  131  A    between atoms: _319  and  _322
REMARK  132  A    between atoms: _322  and  _323
REMARK  133  A    between atoms: _326  and  _328
REMARK  134  A    between atoms: _328  and  _329
REMARK  135  A    between atoms: _328  and  _331
REMARK  136  A    between atoms: _331  and  _332
REMARK  137  A    between atoms: _335  and  _337
REMARK  138  A    between atoms: _337  and  _338
REMARK  139  A    between atoms: _340  and  _342
REMARK  140  A    between atoms: _342  and  _343
REMARK  141  A    between atoms: _346  and  _348
REMARK  142  A    between atoms: _348  and  _349
REMARK  143  A    between atoms: _348  and  _351
REMARK  144  A    between atoms: _351  and  _352
REMARK  145  A    between atoms: _355  and  _357
REMARK  146  A    between atoms: _357  and  _358
REMARK  147  A    between atoms: _357  and  _360
REMARK  148  A    between atoms: _360  and  _361
REMARK  149  A    between atoms: _366  and  _368
REMARK  150  A    between atoms: _368  and  _369
REMARK  151  A    between atoms: _368  and  _371
REMARK  152  A    between atoms: _371  and  _372
REMARK  153  A    between atoms: _375  and  _377
REMARK  154  A    between atoms: _377  and  _378
REMARK  155  A    between atoms: _377  and  _380
REMARK  156  A    between atoms: _383  and  _385
REMARK  157  A    between atoms: _385  and  _386
REMARK  158  A    between atoms: _385  and  _388
REMARK  159  A    between atoms: _388  and  _389
REMARK  160  A    between atoms: _389  and  _390
REMARK  161  A    between atoms: _390  and  _391
REMARK  162  A    between atoms: _391  and  _392
REMARK  163  A    between atoms: _396  and  _398
REMARK  164  A    between atoms: _398  and  _399
REMARK  165  A    between atoms: _398  and  _401
REMARK  166  A    between atoms: _401  and  _402
REMARK  167  A    between atoms: _402  and  _403
REMARK  168  A    between atoms: _405  and  _407
REMARK  169  A    between atoms: _407  and  _408
REMARK  170  A    between atoms: _407  and  _410
REMARK  171  A    between atoms: _410  and  _411
REMARK  172  A    between atoms: _414  and  _416
REMARK  173  A    between atoms: _416  and  _417
REMARK  174  A    between atoms: _419  and  _421
REMARK  175  A    between atoms: _421  and  _422
REMARK  176  A    between atoms: _424  and  _426
REMARK  177  A    between atoms: _426  and  _427
REMARK  178  A    between atoms: _426  and  _429
REMARK  179  A    between atoms: _429  and  _430
REMARK  180  A    between atoms: _433  and  _435
REMARK  181  A    between atoms: _435  and  _436
REMARK  182  A    between atoms: _438  and  _440
REMARK  183  A    between atoms: _440  and  _441
REMARK  184  A    between atoms: _443  and  _445
REMARK  185  A    between atoms: _445  and  _446
REMARK  186  A    between atoms: _445  and  _448
REMARK  187  A    between atoms: _448  and  _449
REMARK  188  A    between atoms: _455  and  _457
REMARK  189  A    between atoms: _457  and  _458
REMARK  190  A    between atoms: _457  and  _460
REMARK  191  A    between atoms: _460  and  _461
REMARK  192  A    between atoms: _464  and  _466
REMARK  193  A    between atoms: _466  and  _467
REMARK  194  A    between atoms: _466  and  _469
REMARK  195  A    between atoms: _472  and  _474
REMARK  196  A    between atoms: _474  and  _475
REMARK  197  A    between atoms: _474  and  _477
REMARK  198  A    between atoms: _477  and  _478
REMARK  199  A    between atoms: _481  and  _483
REMARK  200  A    between atoms: _483  and  _484
REMARK  201  A    between atoms: _483  and  _486
REMARK  202  A    between atoms: _486  and  _487
REMARK  203  A    between atoms: _491  and  _492
REMARK  204  A    between atoms: _497  and  _499
REMARK  205  A    between atoms: _499  and  _500
REMARK  206  A    between atoms: _499  and  _502
REMARK  207  A    between atoms: _505  and  _507
REMARK  208  A    between atoms: _507  and  _508
REMARK  209  A    between atoms: _507  and  _510
REMARK  210  A    between atoms: _510  and  _511
REMARK  211  A    between atoms: _516  and  _518
REMARK  212  A    between atoms: _518  and  _519
REMARK  213  A    between atoms: _518  and  _521
REMARK  214  A    between atoms: _521  and  _522
REMARK  215  A    between atoms: _525  and  _527
REMARK  216  A    between atoms: _527  and  _528
REMARK  217  A    between atoms: _527  and  _530
REMARK  218  A    between atoms: _530  and  _531
REMARK  219  A    between atoms: _534  and  _536
REMARK  220  A    between atoms: _536  and  _537
REMARK  221  A    between atoms: _539  and  _541
REMARK  222  A    between atoms: _541  and  _542
REMARK  223  A    between atoms: _541  and  _544
REMARK  224  A    between atoms: _544  and  _545
REMARK  225  A    between atoms: _545  and  _546
REMARK  226  A    between atoms: _546  and  _547
REMARK  227  A    between atoms: _556  and  _558
REMARK  228  A    between atoms: _558  and  _559
REMARK  229  A    between atoms: _558  and  _561
REMARK  230  A    between atoms: _561  and  _562
REMARK                            x       y       z     vdW  Elec       q    Type
REMARK                         _______ _______ _______ _____ _____    ______ ____
ROOT
ATOM      1  CA  ILE A   1      -6.209   6.351  20.115  0.00  0.00    +0.133 C 
ENDROOT
BRANCH   1   2
ATOM      2  N   ILE A   1      -5.233   7.245  20.726  0.00  0.00    -0.239 NA
ATOM      3  H   ILE A   1      -5.262   8.256  20.485  0.00  0.00    +0.142 HD
ENDBRANCH   1   2
BRANCH   1   4
ATOM      4  CB  ILE A   1      -7.653   6.570  20.640  0.00  0.00    +0.023 C 
ATOM      5  CG2 ILE A   1      -7.760   6.179  22.116  0.00  0.00    +0.002 C 
BRANCH   4   6
ATOM      6  CG1 ILE A   1      -8.119   8.013  20.416  0.00  0.00    +0.002 C 
ATOM      7  CD1 ILE A   1      -9.623   8.195  20.521  0.00  0.00    +0.000 C 
ENDBRANCH   4   6
ENDBRANCH   1   4
BRANCH   1   8
ATOM      8  C   ILE A   1      -6.170   6.509  18.596  0.00  0.00    +0.224 C 
ATOM      9  O   ILE A   1      -5.852   7.579  18.087  0.00  0.00    -0.287 OA
ENDBRANCH   1   8
TORSDOF 4
REMARK  Name = ../refined-set-2016/2pyn/2pyn_pocket.pdb
REMARK  230 active torsions:
REMARK  status: ('A' for Active; 'I' for Inactive)
REMARK    1  A    between atoms: _1  and  _3
REMARK    2  A    between atoms: _3  and  _4
REMARK    3  A    between atoms: _3  and  _6
REMARK    4  A    between atoms: _6  and  _7
REMARK    5  A    between atoms: _7  and  _8
REMARK    6  A    between atoms: _8  and  _9
REMARK    7  A    between atoms: _18  and  _20
REMARK    8  A    between atoms: _20  and  _21
REMARK    9  A    between atoms: _20  and  _23
REMARK   10  A    between atoms: _23  and  _24
REMARK   11  A    between atoms: _27  and  _29
REMARK   12  A    between atoms: _29  and  _30
REMARK   13  A    between atoms: _29  and  _32
REMARK   14  A    between atoms: _32  and  _33
REMARK   15  A    between atoms: _36  and  _38
REMARK   16  A    between atoms: _38  and  _39
REMARK   17  A    between atoms: _38  and  _41
REMARK   18  A    between atoms: _41  and  _42
REMARK   19  A    between atoms: _45  and  _47
REMARK   20  A    between atoms: _47  and  _48
REMARK   21  A    between atoms: _47  and  _50
REMARK   22  A    between atoms: _50  and  _51
REMARK   23  A    between atoms: _54  and  _56
REMARK   24  A    between atoms: _56  and  _57
REMARK   25  A    between atoms: _59  and  _61
REMARK   26  A    between atoms: _61  and  _62
REMARK   27  A    between atoms: _65  and  _67
REMARK   28  A    between atoms: _67  and  _68
REMARK   29  A    between atoms: _67  and  _70
REMARK   30  A    between atoms: _70  and  _71
REMARK   31  A    between atoms: _74  and  _76
REMARK   32  A    between atoms: _76  and  _77
REMARK   33  A    between atoms: _76  and  _79
REMARK   34  A    between atoms: _79  and  _80
REMARK   35  A    between atoms: _85  and  _87
REMARK   36  A    between atoms: _87  and  _88
REMARK   37  A    between atoms: _87  and  _90
REMARK   38  A    between atoms: _90  and  _91
REMARK   39  A    between atoms: _94  and  _96
REMARK   40  A    between atoms: _96  and  _97
REMARK   41  A    between atoms: _96  and  _99
REMARK   42  A    between atoms: _102  and  _104
REMARK   43  A    between atoms: _104  and  _105
REMARK   44  A    between atoms: _104  and  _107
REMARK   45  A    between atoms: _107  and  _108
REMARK   46  A    between atoms: _108  and  _109
REMARK   47  A    between atoms: _109  and  _110
REMARK   48  A    between atoms: _110  and  _111
REMARK   49  A    between atoms: _115  and  _117
REMARK   50  A    between atoms: _117  and  _118
REMARK   51  A    between atoms: _117  and  _120
REMARK   52  A    between atoms: _120  and  _121
REMARK   53  A    between atoms: _121  and  _122
REMARK   54  A    between atoms: _124  and  _126
REMARK   55  A    between atoms: _126  and  _127
REMARK   56  A    between atoms: _126  and  _129
REMARK   57  A    between atoms: _129  and  _130
REMARK   58  A    between atoms: _133  and  _135
REMARK   59  A    between atoms: _135  and  _136
REMARK   60  A    between atoms: _138  and  _140
REMARK   61  A    between atoms: _140  and  _141
REMARK   62  A    between atoms: _143  and  _145
REMARK   63  A    between atoms: _145  and  _146
REMARK   64  A    between atoms: _145  and  _148
REMARK   65  A    between atoms: _148  and  _149
REMARK   66  A    between atoms: _152  and  _154
REMARK   67  A    between atoms: _154  and  _155
REMARK   68  A    between atoms: _157  and  _159
REMARK   69  A    between atoms: _159  and  _160
REMARK   70  A    between atoms: _162  and  _164
REMARK   71  A    between atoms: _164  and  _165
REMARK   72  A    between atoms: _164  and  _167
REMARK   73  A    between atoms: _167  and  _168
REMARK   74  A    between atoms: _171  and  _173
REMARK   75  A    between atoms: _173  and  _174
REMARK   76  A    between atoms: _173  and  _176
REMARK   77  A    between atoms: _176  and  _177
REMARK   78  A    between atoms: _181  and  _182
REMARK   79  A    between atoms: _187  and  _189
REMARK   80  A    between atoms: _189  and  _190
REMARK   81  A    between atoms: _189  and  _192
REMARK   82  A    between atoms: _192  and  _193
REMARK   83  A    between atoms: _197  and  _198
REMARK   84  A    between atoms: _203  and  _205
REMARK   85  A    between atoms: _205  and  _206
REMARK   86  A    between atoms: _205  and  _208
REMARK   87  A    between atoms: _211  and  _213
REMARK   88  A    between atoms: _213  and  _214
REMARK   89  A    between atoms: _213  and  _216
REMARK   90  A    between atoms: _216  and  _217
REMARK   91  A    between atoms: _222  and  _224
REMARK   92  A    between atoms: _224  and  _225
REMARK   93  A    between atoms: _224  and  _227
REMARK   94  A    between atoms: _227  and  _228
REMARK   95  A    between atoms: _231  and  _233
REMARK   96  A    between atoms: _233  and  _234
REMARK   97  A    between atoms: _233  and  _236
REMARK   98  A    between atoms: _236  and  _237
REMARK   99  A    between atoms: _240  and  _242
REMARK  100  A    between atoms: _242  and  _243
REMARK  101  A    between atoms: _245  and  _247
REMARK  102  A    between atoms: _247  and  _248
REMARK  103  A    between atoms: _247  and  _250
REMARK  104  A    between atoms: _250  and  _251
REMARK  105  A    between atoms: _251  and  _252
REMARK  106  A    between atoms: _252  and  _253
REMARK  107  A    between atoms: _262  and  _264
REMARK  108  A    between atoms: _264  and  _265
REMARK  109  A    between atoms: _264  and  _267
REMARK  110  A    between atoms: _267  and  _268
REMARK  111  A    between atoms: _273  and  _275
REMARK  112  A    between atoms: _275  and  _276
REMARK  113  A    between atoms: _275  and  _278
REMARK  114  A    between atoms: _278  and  _279
REMARK  115  A    between atoms: _279  and  _280
REMARK  116  A    between atoms: _280  and  _281
REMARK  117  A    between atoms: _290  and  _292
REMARK  118  A    between atoms: _292  and  _293
REMARK  119  A    between atoms: _292  and  _295
REMARK  120  A    between atoms: _295  and  _296
REMARK  121  A    between atoms: _299  and  _301
REMARK  122  A    between atoms: _301  and  _302
REMARK  123  A    between atoms: _301  and  _304
REMARK  124  A    between atoms: _304  and  _305
REMARK  125  A    between atoms: _308  and  _310
REMARK  126  A    between atoms: _310  and  _311
REMARK  127  A    between atoms: _310  and  _313
REMARK  128  A    between atoms: _313  and  _314
REMARK  129  A    between atoms: _317  and  _319
REMARK  130  A    between atoms: _319  and  _320
REMARK  131  A    between atoms: _319  and  _322
REMARK  132  A    between atoms: _322  and  _323
REMARK  133  A    between atoms: _326  and  _328
REMARK  134  A    between atoms: _328  and  _329
REMARK  135  A    between atoms: _328  and  _331
REMARK  136  A    between atoms: _331  and  _332
REMARK  137  A    between atoms: _335  and  _337
REMARK  138  A    between atoms: _337  and  _338
REMARK  139  A    between atoms: _340  and  _342
REMARK  140  A    between atoms: _342  and  _343
REMARK  141  A    between atoms: _346  and  _348
REMARK  142  A    between atoms: _348  and  _349
REMARK  143  A    between atoms: _348  and  _351
REMARK  144  A    between atoms: _351  and  _352
REMARK  145  A    between atoms: _355  and  _357
REMARK  146  A    between atoms: _357  and  _358
REMARK  147  A    between atoms: _357  and  _360
REMARK  148  A    between atoms: _360  and  _361
REMARK  149  A    between atoms: _366  and  _368
REMARK  150  A    between atoms: _368  and  _369
REMARK  151  A    between atoms: _368  and  _371
REMARK  152  A    between atoms: _371  and  _372
REMARK  153  A    between atoms: _375  and  _377
REMARK  154  A    between atoms: _377  and  _378
REMARK  155  A    between atoms: _377  and  _380
REMARK  156  A    between atoms: _383  and  _385
REMARK  157  A    between atoms: _385  and  _386
REMARK  158  A    between atoms: _385  and  _388
REMARK  159  A    between atoms: _388  and  _389
REMARK  160  A    between atoms: _389  and  _390
REMARK  161  A    between atoms: _390  and  _391
REMARK  162  A    between atoms: _391  and  _392
REMARK  163  A    between atoms: _396  and  _398
REMARK  164  A    between atoms: _398  and  _399
REMARK  165  A    between atoms: _398  and  _401
REMARK  166  A    between atoms: _401  and  _402
REMARK  167  A    between atoms: _402  and  _403
REMARK  168  A    between atoms: _405  and  _407
REMARK  169  A    between atoms: _407  and  _408
REMARK  170  A    between atoms: _407  and  _410
REMARK  171  A    between atoms: _410  and  _411
REMARK  172  A    between atoms: _414  and  _416
REMARK  173  A    between atoms: _416  and  _417
REMARK  174  A    between atoms: _419  and  _421
REMARK  175  A    between atoms: _421  and  _422
REMARK  176  A    between atoms: _424  and  _426
REMARK  177  A    between atoms: _426  and  _427
REMARK  178  A    between atoms: _426  and  _429
REMARK  179  A    between atoms: _429  and  _430
REMARK  180  A    between atoms: _433  and  _435
REMARK  181  A    between atoms: _435  and  _436
REMARK  182  A    between atoms: _438  and  _440
REMARK  183  A    between atoms: _440  and  _441
REMARK  184  A    between atoms: _443  and  _445
REMARK  185  A    between atoms: _445  and  _446
REMARK  186  A    between atoms: _445  and  _448
REMARK  187  A    between atoms: _448  and  _449
REMARK  188  A    between atoms: _455  and  _457
REMARK  189  A    between atoms: _457  and  _458
REMARK  190  A    between atoms: _457  and  _460
REMARK  191  A    between atoms: _460  and  _461
REMARK  192  A    between atoms: _464  and  _466
REMARK  193  A    between atoms: _466  and  _467
REMARK  194  A    between atoms: _466  and  _469
REMARK  195  A    between atoms: _472  and  _474
REMARK  196  A    between atoms: _474  and  _475
REMARK  197  A    between atoms: _474  and  _477
REMARK  198  A    between atoms: _477  and  _478
REMARK  199  A    between atoms: _481  and  _483
REMARK  200  A    between atoms: _483  and  _484
REMARK  201  A    between atoms: _483  and  _486
REMARK  202  A    between atoms: _486  and  _487
REMARK  203  A    between atoms: _491  and  _492
REMARK  204  A    between atoms: _497  and  _499
REMARK  205  A    between atoms: _499  and  _500
REMARK  206  A    between atoms: _499  and  _502
REMARK  207  A    between atoms: _505  and  _507
REMARK  208  A    between atoms: _507  and  _508
REMARK  209  A    between atoms: _507  and  _510
REMARK  210  A    between atoms: _510  and  _511
REMARK  211  A    between atoms: _516  and  _518
REMARK  212  A    between atoms: _518  and  _519
REMARK  213  A    between atoms: _518  and  _521
REMARK  214  A    between atoms: _521  and  _522
REMARK  215  A    between atoms: _525  and  _527
REMARK  216  A    between atoms: _527  and  _528
REMARK  217  A    between atoms: _527  and  _530
REMARK  218  A    between atoms: _530  and  _531
REMARK  219  A    between atoms: _534  and  _536
REMARK  220  A    between atoms: _536  and  _537
REMARK  221  A    between atoms: _539  and  _541
REMARK  222  A    between atoms: _541  and  _542
REMARK  223  A    between atoms: _541  and  _544
REMARK  224  A    between atoms: _544  and  _545
REMARK  225  A    between atoms: _545  and  _546
REMARK  226  A    between atoms: _546  and  _547
REMARK  227  A    between atoms: _556  and  _558
REMARK  228  A    between atoms: _558  and  _559
REMARK  229  A    between atoms: _558  and  _561
REMARK  230  A    between atoms: _561  and  _562
REMARK                            x       y       z     vdW  Elec       q    Type
REMARK                         _______ _______ _______ _____ _____    ______ ____
ROOT
ATOM      1  CA  LEU A   1     -12.960  12.003  14.083  0.00  0.00    +0.133 C 
ENDROOT
BRANCH   1   2
ATOM      2  N   LEU A   1     -13.768  13.191  13.881  0.00  0.00    -0.239 NA
ATOM      3  H   LEU A   1     -13.932  13.824  14.689  0.00  0.00    +0.142 HD
ENDBRANCH   1   2
BRANCH   1   4
ATOM      4  C   LEU A   1     -13.832  10.976  14.786  0.00  0.00    +0.224 C 
ATOM      5  O   LEU A   1     -14.590  11.320  15.701  0.00  0.00    -0.287 OA
ENDBRANCH   1   4
BRANCH   1   6
ATOM      6  CB  LEU A   1     -11.749  12.351  14.949  0.00  0.00    +0.025 C 
BRANCH   6   7
ATOM      7  CG  LEU A   1     -10.500  12.967  14.316  0.00  0.00    +0.002 C 
ATOM      8  CD2 LEU A   1      -9.731  13.823  15.300  0.00  0.00    +0.000 C 
ATOM      9  CD1 LEU A   1     -10.665  13.652  12.929  0.00  0.00    +0.000 C 
ENDBRANCH   6   7
ENDBRANCH   1   6
TORSDOF 4
REMARK  Name = ../refined-set-2016/2pyn/2pyn_pocket.pdb
REMARK  230 active torsions:
REMARK  status: ('A' for Active; 'I' for Inactive)
REMARK    1  A    between atoms: _1  and  _3
REMARK    2  A    between atoms: _3  and  _4
REMARK    3  A    between atoms: _3  and  _6
REMARK    4  A    between atoms: _6  and  _7
REMARK    5  A    between atoms: _7  and  _8
REMARK    6  A    between atoms: _8  and  _9
REMARK    7  A    between atoms: _18  and  _20
REMARK    8  A    between atoms: _20  and  _21
REMARK    9  A    between atoms: _20  and  _23
REMARK   10  A    between atoms: _23  and  _24
REMARK   11  A    between atoms: _27  and  _29
REMARK   12  A    between atoms: _29  and  _30
REMARK   13  A    between atoms: _29  and  _32
REMARK   14  A    between atoms: _32  and  _33
REMARK   15  A    between atoms: _36  and  _38
REMARK   16  A    between atoms: _38  and  _39
REMARK   17  A    between atoms: _38  and  _41
REMARK   18  A    between atoms: _41  and  _42
REMARK   19  A    between atoms: _45  and  _47
REMARK   20  A    between atoms: _47  and  _48
REMARK   21  A    between atoms: _47  and  _50
REMARK   22  A    between atoms: _50  and  _51
REMARK   23  A    between atoms: _54  and  _56
REMARK   24  A    between atoms: _56  and  _57
REMARK   25  A    between atoms: _59  and  _61
REMARK   26  A    between atoms: _61  and  _62
REMARK   27  A    between atoms: _65  and  _67
REMARK   28  A    between atoms: _67  and  _68
REMARK   29  A    between atoms: _67  and  _70
REMARK   30  A    between atoms: _70  and  _71
REMARK   31  A    between atoms: _74  and  _76
REMARK   32  A    between atoms: _76  and  _77
REMARK   33  A    between atoms: _76  and  _79
REMARK   34  A    between atoms: _79  and  _80
REMARK   35  A    between atoms: _85  and  _87
REMARK   36  A    between atoms: _87  and  _88
REMARK   37  A    between atoms: _87  and  _90
REMARK   38  A    between atoms: _90  and  _91
REMARK   39  A    between atoms: _94  and  _96
REMARK   40  A    between atoms: _96  and  _97
REMARK   41  A    between atoms: _96  and  _99
REMARK   42  A    between atoms: _102  and  _104
REMARK   43  A    between atoms: _104  and  _105
REMARK   44  A    between atoms: _104  and  _107
REMARK   45  A    between atoms: _107  and  _108
REMARK   46  A    between atoms: _108  and  _109
REMARK   47  A    between atoms: _109  and  _110
REMARK   48  A    between atoms: _110  and  _111
REMARK   49  A    between atoms: _115  and  _117
REMARK   50  A    between atoms: _117  and  _118
REMARK   51  A    between atoms: _117  and  _120
REMARK   52  A    between atoms: _120  and  _121
REMARK   53  A    between atoms: _121  and  _122
REMARK   54  A    between atoms: _124  and  _126
REMARK   55  A    between atoms: _126  and  _127
REMARK   56  A    between atoms: _126  and  _129
REMARK   57  A    between atoms: _129  and  _130
REMARK   58  A    between atoms: _133  and  _135
REMARK   59  A    between atoms: _135  and  _136
REMARK   60  A    between atoms: _138  and  _140
REMARK   61  A    between atoms: _140  and  _141
REMARK   62  A    between atoms: _143  and  _145
REMARK   63  A    between atoms: _145  and  _146
REMARK   64  A    between atoms: _145  and  _148
REMARK   65  A    between atoms: _148  and  _149
REMARK   66  A    between atoms: _152  and  _154
REMARK   67  A    between atoms: _154  and  _155
REMARK   68  A    between atoms: _157  and  _159
REMARK   69  A    between atoms: _159  and  _160
REMARK   70  A    between atoms: _162  and  _164
REMARK   71  A    between atoms: _164  and  _165
REMARK   72  A    between atoms: _164  and  _167
REMARK   73  A    between atoms: _167  and  _168
REMARK   74  A    between atoms: _171  and  _173
REMARK   75  A    between atoms: _173  and  _174
REMARK   76  A    between atoms: _173  and  _176
REMARK   77  A    between atoms: _176  and  _177
REMARK   78  A    between atoms: _181  and  _182
REMARK   79  A    between atoms: _187  and  _189
REMARK   80  A    between atoms: _189  and  _190
REMARK   81  A    between atoms: _189  and  _192
REMARK   82  A    between atoms: _192  and  _193
REMARK   83  A    between atoms: _197  and  _198
REMARK   84  A    between atoms: _203  and  _205
REMARK   85  A    between atoms: _205  and  _206
REMARK   86  A    between atoms: _205  and  _208
REMARK   87  A    between atoms: _211  and  _213
REMARK   88  A    between atoms: _213  and  _214
REMARK   89  A    between atoms: _213  and  _216
REMARK   90  A    between atoms: _216  and  _217
REMARK   91  A    between atoms: _222  and  _224
REMARK   92  A    between atoms: _224  and  _225
REMARK   93  A    between atoms: _224  and  _227
REMARK   94  A    between atoms: _227  and  _228
REMARK   95  A    between atoms: _231  and  _233
REMARK   96  A    between atoms: _233  and  _234
REMARK   97  A    between atoms: _233  and  _236
REMARK   98  A    between atoms: _236  and  _237
REMARK   99  A    between atoms: _240  and  _242
REMARK  100  A    between atoms: _242  and  _243
REMARK  101  A    between atoms: _245  and  _247
REMARK  102  A    between atoms: _247  and  _248
REMARK  103  A    between atoms: _247  and  _250
REMARK  104  A    between atoms: _250  and  _251
REMARK  105  A    between atoms: _251  and  _252
REMARK  106  A    between atoms: _252  and  _253
REMARK  107  A    between atoms: _262  and  _264
REMARK  108  A    between atoms: _264  and  _265
REMARK  109  A    between atoms: _264  and  _267
REMARK  110  A    between atoms: _267  and  _268
REMARK  111  A    between atoms: _273  and  _275
REMARK  112  A    between atoms: _275  and  _276
REMARK  113  A    between atoms: _275  and  _278
REMARK  114  A    between atoms: _278  and  _279
REMARK  115  A    between atoms: _279  and  _280
REMARK  116  A    between atoms: _280  and  _281
REMARK  117  A    between atoms: _290  and  _292
REMARK  118  A    between atoms: _292  and  _293
REMARK  119  A    between atoms: _292  and  _295
REMARK  120  A    between atoms: _295  and  _296
REMARK  121  A    between atoms: _299  and  _301
REMARK  122  A    between atoms: _301  and  _302
REMARK  123  A    between atoms: _301  and  _304
REMARK  124  A    between atoms: _304  and  _305
REMARK  125  A    between atoms: _308  and  _310
REMARK  126  A    between atoms: _310  and  _311
REMARK  127  A    between atoms: _310  and  _313
REMARK  128  A    between atoms: _313  and  _314
REMARK  129  A    between atoms: _317  and  _319
REMARK  130  A    between atoms: _319  and  _320
REMARK  131  A    between atoms: _319  and  _322
REMARK  132  A    between atoms: _322  and  _323
REMARK  133  A    between atoms: _326  and  _328
REMARK  134  A    between atoms: _328  and  _329
REMARK  135  A    between atoms: _328  and  _331
REMARK  136  A    between atoms: _331  and  _332
REMARK  137  A    between atoms: _335  and  _337
REMARK  138  A    between atoms: _337  and  _338
REMARK  139  A    between atoms: _340  and  _342
REMARK  140  A    between atoms: _342  and  _343
REMARK  141  A    between atoms: _346  and  _348
REMARK  142  A    between atoms: _348  and  _349
REMARK  143  A    between atoms: _348  and  _351
REMARK  144  A    between atoms: _351  and  _352
REMARK  145  A    between atoms: _355  and  _357
REMARK  146  A    between atoms: _357  and  _358
REMARK  147  A    between atoms: _357  and  _360
REMARK  148  A    between atoms: _360  and  _361
REMARK  149  A    between atoms: _366  and  _368
REMARK  150  A    between atoms: _368  and  _369
REMARK  151  A    between atoms: _368  and  _371
REMARK  152  A    between atoms: _371  and  _372
REMARK  153  A    between atoms: _375  and  _377
REMARK  154  A    between atoms: _377  and  _378
REMARK  155  A    between atoms: _377  and  _380
REMARK  156  A    between atoms: _383  and  _385
REMARK  157  A    between atoms: _385  and  _386
REMARK  158  A    between atoms: _385  and  _388
REMARK  159  A    between atoms: _388  and  _389
REMARK  160  A    between atoms: _389  and  _390
REMARK  161  A    between atoms: _390  and  _391
REMARK  162  A    between atoms: _391  and  _392
REMARK  163  A    between atoms: _396  and  _398
REMARK  164  A    between atoms: _398  and  _399
REMARK  165  A    between atoms: _398  and  _401
REMARK  166  A    between atoms: _401  and  _402
REMARK  167  A    between atoms: _402  and  _403
REMARK  168  A    between atoms: _405  and  _407
REMARK  169  A    between atoms: _407  and  _408
REMARK  170  A    between atoms: _407  and  _410
REMARK  171  A    between atoms: _410  and  _411
REMARK  172  A    between atoms: _414  and  _416
REMARK  173  A    between atoms: _416  and  _417
REMARK  174  A    between atoms: _419  and  _421
REMARK  175  A    between atoms: _421  and  _422
REMARK  176  A    between atoms: _424  and  _426
REMARK  177  A    between atoms: _426  and  _427
REMARK  178  A    between atoms: _426  and  _429
REMARK  179  A    between atoms: _429  and  _430
REMARK  180  A    between atoms: _433  and  _435
REMARK  181  A    between atoms: _435  and  _436
REMARK  182  A    between atoms: _438  and  _440
REMARK  183  A    between atoms: _440  and  _441
REMARK  184  A    between atoms: _443  and  _445
REMARK  185  A    between atoms: _445  and  _446
REMARK  186  A    between atoms: _445  and  _448
REMARK  187  A    between atoms: _448  and  _449
REMARK  188  A    between atoms: _455  and  _457
REMARK  189  A    between atoms: _457  and  _458
REMARK  190  A    between atoms: _457  and  _460
REMARK  191  A    between atoms: _460  and  _461
REMARK  192  A    between atoms: _464  and  _466
REMARK  193  A    between atoms: _466  and  _467
REMARK  194  A    between atoms: _466  and  _469
REMARK  195  A    between atoms: _472  and  _474
REMARK  196  A    between atoms: _474  and  _475
REMARK  197  A    between atoms: _474  and  _477
REMARK  198  A    between atoms: _477  and  _478
REMARK  199  A    between atoms: _481  and  _483
REMARK  200  A    between atoms: _483  and  _484
REMARK  201  A    between atoms: _483  and  _486
REMARK  202  A    between atoms: _486  and  _487
REMARK  203  A    between atoms: _491  and  _492
REMARK  204  A    between atoms: _497  and  _499
REMARK  205  A    between atoms: _499  and  _500
REMARK  206  A    between atoms: _499  and  _502
REMARK  207  A    between atoms: _505  and  _507
REMARK  208  A    between atoms: _507  and  _508
REMARK  209  A    between atoms: _507  and  _510
REMARK  210  A    between atoms: _510  and  _511
REMARK  211  A    between atoms: _516  and  _518
REMARK  212  A    between atoms: _518  and  _519
REMARK  213  A    between atoms: _518  and  _521
REMARK  214  A    between atoms: _521  and  _522
REMARK  215  A    between atoms: _525  and  _527
REMARK  216  A    between atoms: _527  and  _528
REMARK  217  A    between atoms: _527  and  _530
REMARK  218  A    between atoms: _530  and  _531
REMARK  219  A    between atoms: _534  and  _536
REMARK  220  A    between atoms: _536  and  _537
REMARK  221  A    between atoms: _539  and  _541
REMARK  222  A    between atoms: _541  and  _542
REMARK  223  A    between atoms: _541  and  _544
REMARK  224  A    between atoms: _544  and  _545
REMARK  225  A    between atoms: _545  and  _546
REMARK  226  A    between atoms: _546  and  _547
REMARK  227  A    between atoms: _556  and  _558
REMARK  228  A    between atoms: _558  and  _559
REMARK  229  A    between atoms: _558  and  _561
REMARK  230  A    between atoms: _561  and  _562
REMARK                            x       y       z     vdW  Elec       q    Type
REMARK                         _______ _______ _______ _____ _____    ______ ____
ROOT
ATOM      1  CA  ILE A   6     -16.372  15.565  22.214  0.00  0.00    +0.149 C 
ENDROOT
BRANCH   1   2
ATOM      2  C   ILE A   6     -16.592  16.551  21.071  0.00  0.00    +0.241 C 
ATOM      3  N   ILE A   7     -17.121  17.730  21.380  0.00  0.00    -0.297 N 
ATOM      4  H   ILE A   7     -17.507  17.891  22.332  0.00  0.00    +0.150 HD
ATOM      5  O   ILE A   6     -16.259  16.259  19.919  0.00  0.00    -0.273 OA
BRANCH   3   6
ATOM      6  CA  ILE A   7     -17.163  18.806  20.382  0.00  0.00    +0.149 C 
BRANCH   6   7
ATOM      7  C   ILE A   7     -15.993  19.729  20.641  0.00  0.00    +0.241 C 
ATOM      8  O   ILE A   7     -15.959  20.421  21.677  0.00  0.00    -0.273 OA
ATOM      9  N   GLY A   8     -15.044  19.751  19.700  0.00  0.00    -0.295 N 
ATOM     10  H   GLY A   8     -15.192  19.236  18.809  0.00  0.00    +0.150 HD
BRANCH   9  11
ATOM     11  CA  GLY A   8     -13.795  20.494  19.909  0.00  0.00    +0.176 C 
BRANCH  11  12
ATOM     12  C   GLY A   8     -13.832  21.841  19.229  0.00  0.00    +0.243 C 
ATOM     13  N   ARG A   9     -12.721  22.579  19.331  0.00  0.00    -0.297 N 
ATOM     14  H   ARG A   9     -11.866  22.161  19.750  0.00  0.00    +0.150 HD
ATOM     15  O   GLY A   8     -14.843  22.208  18.625  0.00  0.00    -0.273 OA
BRANCH  13  16
ATOM     16  CA  ARG A   9     -12.689  23.968  18.861  0.00  0.00    +0.149 C 
BRANCH  16  17
ATOM     17  C   ARG A   9     -12.969  24.124  17.376  0.00  0.00    +0.241 C 
ATOM     18  O   ARG A   9     -13.482  25.163  16.958  0.00  0.00    -0.273 OA
ATOM     19  N   ASN A  10     -12.637  23.106  16.574  0.00  0.00    -0.298 N 
ATOM     20  H   ASN A  10     -12.179  22.264  16.978  0.00  0.00    +0.150 HD
BRANCH  19  21
ATOM     21  CA  ASN A  10     -12.908  23.159  15.138  0.00  0.00    +0.146 C 
BRANCH  21  22
ATOM     22  C   ASN A  10     -14.385  23.427  14.813  0.00  0.00    +0.227 C 
ATOM     23  O   ASN A  10     -14.698  24.062  13.797  0.00  0.00    -0.286 OA
ENDBRANCH  21  22
BRANCH  21  24
ATOM     24  CB  ASN A  10     -12.406  21.891  14.417  0.00  0.00    +0.112 C 
BRANCH  24  25
ATOM     25  CG  ASN A  10     -13.269  20.667  14.685  0.00  0.00    +0.222 C 
ATOM     26  OD1 ASN A  10     -13.374  20.219  15.816  0.00  0.00    -0.275 OA
ATOM     27  ND2 ASN A  10     -13.878  20.109  13.630  0.00  0.00    -0.329 N 
ATOM     28 HD21 ASN A  10     -14.467  19.262  13.758  0.00  0.00    +0.145 HD
ATOM     29 HD22 ASN A  10     -13.762  20.523  12.683  0.00  0.00    +0.145 HD
ENDBRANCH  24  25
ENDBRANCH  21  24
ENDBRANCH  19  21
ENDBRANCH  16  17
BRANCH  16  30
ATOM     30  CB  ARG A   9     -11.369  24.635  19.223  0.00  0.00    +0.033 C 
BRANCH  30  31
ATOM     31  CG  ARG A   9     -11.140  24.776  20.745  0.00  0.00    +0.045 C 
BRANCH  31  32
ATOM     32  CD  ARG A   9      -9.879  25.655  21.022  0.00  0.00    +0.174 C 
BRANCH  32  33
ATOM     33  NE  ARG A   9      -8.666  25.012  20.492  0.00  0.00    -0.265 N 
ATOM     34  HE  ARG A   9      -8.230  24.268  21.073  0.00  0.00    +0.259 HD
ATOM     35  CZ  ARG A   9      -8.078  25.302  19.329  0.00  0.00    +0.342 C 
ATOM     36  NH2 ARG A   9      -6.999  24.625  18.957  0.00  0.00    -0.292 N 
ATOM     37 HH21 ARG A   9      -6.618  23.876  19.570  0.00  0.00    +0.255 HD
ATOM     38 HH22 ARG A   9      -6.534  24.844  18.053  0.00  0.00    +0.255 HD
ATOM     39  NH1 ARG A   9      -8.545  26.272  18.536  0.00  0.00    -0.292 N 
ATOM     40 HH11 ARG A   9      -9.383  26.818  18.821  0.00  0.00    +0.255 HD
ATOM     41 HH12 ARG A   9      -8.070  26.480  17.634  0.00  0.00    +0.255 HD
ENDBRANCH  32  33
ENDBRANCH  31  32
ENDBRANCH  30  31
ENDBRANCH  16  30
ENDBRANCH  13  16
ENDBRANCH  11  12
ENDBRANCH   9  11
ENDBRANCH   6   7
BRANCH   6  42
ATOM     42  CB  ILE A   7     -18.479  19.610  20.459  0.00  0.00    +0.027 C 
ATOM     43  CG2 ILE A   7     -18.540  20.742  19.359  0.00  0.00    +0.002 C 
BRANCH  42  44
ATOM     44  CG1 ILE A   7     -19.682  18.657  20.394  0.00  0.00    +0.002 C 
ATOM     45  CD1 ILE A   7     -19.731  17.752  19.152  0.00  0.00    +0.000 C 
ENDBRANCH  42  44
ENDBRANCH   6  42
ENDBRANCH   3   6
ENDBRANCH   1   2
BRANCH   1  48
ATOM     46  C   ASN A   5     -18.038  13.816  22.686  0.00  0.00    +0.241 C 
ATOM     47  O   ASN A   5     -18.571  14.422  23.623  0.00  0.00    -0.273 OA
ATOM     48  N   ILE A   6     -17.061  14.308  21.932  0.00  0.00    -0.297 N 
ATOM     49  H   ILE A   6     -16.770  13.767  21.093  0.00  0.00    +0.150 HD
BRANCH  46  50
ATOM     50  CA  ASN A   5     -18.504  12.411  22.314  0.00  0.00    +0.158 C 
BRANCH  50  53
ATOM     51  C   VAL A   4     -17.400  11.228  24.142  0.00  0.00    +0.241 C 
ATOM     52  O   VAL A   4     -16.282  11.379  23.634  0.00  0.00    -0.273 OA
ATOM     53  N   ASN A   5     -18.523  11.615  23.535  0.00  0.00    -0.297 N 
ATOM     54  H   ASN A   5     -19.439  11.341  23.945  0.00  0.00    +0.150 HD
BRANCH  51  55
ATOM     55  CA  VAL A   4     -17.536  10.560  25.508  0.00  0.00    +0.149 C 
BRANCH  55  58
ATOM     56  C   PRO A   3     -16.896   8.254  26.064  0.00  0.00    +0.241 C 
ATOM     57  O   PRO A   3     -18.013   7.970  26.501  0.00  0.00    -0.273 OA
ATOM     58  N   VAL A   4     -16.593   9.448  25.547  0.00  0.00    -0.297 N 
ATOM     59  H   VAL A   4     -15.641   9.591  25.154  0.00  0.00    +0.150 HD
BRANCH  56  62
ATOM     60  C   THR A   2     -14.785   7.392  23.858  0.00  0.00    +0.246 C 
ATOM     61  N   PRO A   3     -14.660   7.558  25.189  0.00  0.00    -0.272 N 
ATOM     62  CA  PRO A   3     -15.784   7.204  26.061  0.00  0.00    +0.152 C 
ATOM     63  CB  PRO A   3     -15.136   7.090  27.444  0.00  0.00    +0.031 C 
ATOM     64  CG  PRO A   3     -13.952   7.943  27.394  0.00  0.00    +0.024 C 
ATOM     65  CD  PRO A   3     -13.495   8.040  25.950  0.00  0.00    +0.094 C 
ATOM     66  O   THR A   2     -15.815   6.942  23.336  0.00  0.00    -0.273 OA
BRANCH  60  67
ATOM     67  CA  THR A   2     -13.587   7.769  22.981  0.00  0.00    +0.176 C 
BRANCH  67  70
ATOM     68  C   PRO A   1     -12.688   5.734  21.978  0.00  0.00    +0.239 C 
ATOM     69  O   PRO A   1     -11.841   5.579  22.867  0.00  0.00    -0.274 OA
ATOM     70  N   THR A   2     -13.488   6.794  21.909  0.00  0.00    -0.295 N 
ATOM     71  H   THR A   2     -14.065   6.930  21.055  0.00  0.00    +0.150 HD
BRANCH  68  73
ATOM     72  N   PRO A   1     -12.537   5.169  19.521  0.00  0.00    -0.210 NA
ATOM     73  CA  PRO A   1     -12.864   4.697  20.868  0.00  0.00    +0.149 C 
ATOM     74  CB  PRO A   1     -11.917   3.509  21.052  0.00  0.00    +0.028 C 
ATOM     75  CG  PRO A   1     -10.723   3.869  20.244  0.00  0.00    +0.021 C 
ATOM     76  CD  PRO A   1     -11.209   4.699  19.081  0.00  0.00    +0.089 C 
ENDBRANCH  68  73
ENDBRANCH  67  70
BRANCH  67  77
ATOM     77  CB  THR A   2     -13.763   9.199  22.416  0.00  0.00    +0.137 C 
ATOM     78  CG2 THR A   2     -14.948   9.282  21.443  0.00  0.00    +0.034 C 
BRANCH  77  79
ATOM     79  OG1 THR A   2     -13.955  10.125  23.495  0.00  0.00    -0.382 OA
ATOM     80  HG1 THR A   2     -14.764   9.871  24.006  0.00  0.00    +0.210 HD
ENDBRANCH  77  79
ENDBRANCH  67  77
ENDBRANCH  60  67
ENDBRANCH  56  62
ENDBRANCH  55  58
BRANCH  55  81
ATOM     81  CB  VAL A   4     -17.220  11.589  26.649  0.00  0.00    +0.027 C 
ATOM     82  CG2 VAL A   4     -17.211  10.905  28.024  0.00  0.00    +0.002 C 
ATOM     83  CG1 VAL A   4     -18.219  12.754  26.665  0.00  0.00    +0.002 C 
ENDBRANCH  55  81
ENDBRANCH  51  55
ENDBRANCH  50  53
BRANCH  50  84
ATOM     84  CB  ASN A   5     -19.892  12.489  21.668  0.00  0.00    +0.114 C 
BRANCH  84  85
ATOM     85  CG  ASN A   5     -20.421  11.115  21.228  0.00  0.00    +0.222 C 
ATOM     86  ND2 ASN A   5     -21.685  10.818  21.559  0.00  0.00    -0.329 N 
ATOM     87 HD21 ASN A   5     -22.258  11.503  22.092  0.00  0.00    +0.145 HD
ATOM     88 HD22 ASN A   5     -22.093   9.902  21.283  0.00  0.00    +0.145 HD
ATOM     89  OD1 ASN A   5     -19.701  10.337  20.597  0.00  0.00    -0.275 OA
ENDBRANCH  84  85
ENDBRANCH  50  84
ENDBRANCH  46  50
ENDBRANCH   1  48
BRANCH   1  90
ATOM     90  CB  ILE A   6     -14.814  15.321  22.348  0.00  0.00    +0.027 C 
ATOM     91  CG2 ILE A   6     -14.034  16.656  22.452  0.00  0.00    +0.002 C 
BRANCH  90  92
ATOM     92  CG1 ILE A   6     -14.486  14.390  23.518  0.00  0.00    +0.002 C 
ATOM     93  CD1 ILE A   6     -15.103  14.832  24.834  0.00  0.00    +0.000 C 
ENDBRANCH  90  92
ENDBRANCH   1  90
TORSDOF 33
REMARK  Name = ../refined-set-2016/2pyn/2pyn_pocket.pdb
REMARK  230 active torsions:
REMARK  status: ('A' for Active; 'I' for Inactive)
REMARK    1  A    between atoms: _1  and  _3
REMARK    2  A    between atoms: _3  and  _4
REMARK    3  A    between atoms: _3  and  _6
REMARK    4  A    between atoms: _6  and  _7
REMARK    5  A    between atoms: _7  and  _8
REMARK    6  A    between atoms: _8  and  _9
REMARK    7  A    between atoms: _18  and  _20
REMARK    8  A    between atoms: _20  and  _21
REMARK    9  A    between atoms: _20  and  _23
REMARK   10  A    between atoms: _23  and  _24
REMARK   11  A    between atoms: _27  and  _29
REMARK   12  A    between atoms: _29  and  _30
REMARK   13  A    between atoms: _29  and  _32
REMARK   14  A    between atoms: _32  and  _33
REMARK   15  A    between atoms: _36  and  _38
REMARK   16  A    between atoms: _38  and  _39
REMARK   17  A    between atoms: _38  and  _41
REMARK   18  A    between atoms: _41  and  _42
REMARK   19  A    between atoms: _45  and  _47
REMARK   20  A    between atoms: _47  and  _48
REMARK   21  A    between atoms: _47  and  _50
REMARK   22  A    between atoms: _50  and  _51
REMARK   23  A    between atoms: _54  and  _56
REMARK   24  A    between atoms: _56  and  _57
REMARK   25  A    between atoms: _59  and  _61
REMARK   26  A    between atoms: _61  and  _62
REMARK   27  A    between atoms: _65  and  _67
REMARK   28  A    between atoms: _67  and  _68
REMARK   29  A    between atoms: _67  and  _70
REMARK   30  A    between atoms: _70  and  _71
REMARK   31  A    between atoms: _74  and  _76
REMARK   32  A    between atoms: _76  and  _77
REMARK   33  A    between atoms: _76  and  _79
REMARK   34  A    between atoms: _79  and  _80
REMARK   35  A    between atoms: _85  and  _87
REMARK   36  A    between atoms: _87  and  _88
REMARK   37  A    between atoms: _87  and  _90
REMARK   38  A    between atoms: _90  and  _91
REMARK   39  A    between atoms: _94  and  _96
REMARK   40  A    between atoms: _96  and  _97
REMARK   41  A    between atoms: _96  and  _99
REMARK   42  A    between atoms: _102  and  _104
REMARK   43  A    between atoms: _104  and  _105
REMARK   44  A    between atoms: _104  and  _107
REMARK   45  A    between atoms: _107  and  _108
REMARK   46  A    between atoms: _108  and  _109
REMARK   47  A    between atoms: _109  and  _110
REMARK   48  A    between atoms: _110  and  _111
REMARK   49  A    between atoms: _115  and  _117
REMARK   50  A    between atoms: _117  and  _118
REMARK   51  A    between atoms: _117  and  _120
REMARK   52  A    between atoms: _120  and  _121
REMARK   53  A    between atoms: _121  and  _122
REMARK   54  A    between atoms: _124  and  _126
REMARK   55  A    between atoms: _126  and  _127
REMARK   56  A    between atoms: _126  and  _129
REMARK   57  A    between atoms: _129  and  _130
REMARK   58  A    between atoms: _133  and  _135
REMARK   59  A    between atoms: _135  and  _136
REMARK   60  A    between atoms: _138  and  _140
REMARK   61  A    between atoms: _140  and  _141
REMARK   62  A    between atoms: _143  and  _145
REMARK   63  A    between atoms: _145  and  _146
REMARK   64  A    between atoms: _145  and  _148
REMARK   65  A    between atoms: _148  and  _149
REMARK   66  A    between atoms: _152  and  _154
REMARK   67  A    between atoms: _154  and  _155
REMARK   68  A    between atoms: _157  and  _159
REMARK   69  A    between atoms: _159  and  _160
REMARK   70  A    between atoms: _162  and  _164
REMARK   71  A    between atoms: _164  and  _165
REMARK   72  A    between atoms: _164  and  _167
REMARK   73  A    between atoms: _167  and  _168
REMARK   74  A    between atoms: _171  and  _173
REMARK   75  A    between atoms: _173  and  _174
REMARK   76  A    between atoms: _173  and  _176
REMARK   77  A    between atoms: _176  and  _177
REMARK   78  A    between atoms: _181  and  _182
REMARK   79  A    between atoms: _187  and  _189
REMARK   80  A    between atoms: _189  and  _190
REMARK   81  A    between atoms: _189  and  _192
REMARK   82  A    between atoms: _192  and  _193
REMARK   83  A    between atoms: _197  and  _198
REMARK   84  A    between atoms: _203  and  _205
REMARK   85  A    between atoms: _205  and  _206
REMARK   86  A    between atoms: _205  and  _208
REMARK   87  A    between atoms: _211  and  _213
REMARK   88  A    between atoms: _213  and  _214
REMARK   89  A    between atoms: _213  and  _216
REMARK   90  A    between atoms: _216  and  _217
REMARK   91  A    between atoms: _222  and  _224
REMARK   92  A    between atoms: _224  and  _225
REMARK   93  A    between atoms: _224  and  _227
REMARK   94  A    between atoms: _227  and  _228
REMARK   95  A    between atoms: _231  and  _233
REMARK   96  A    between atoms: _233  and  _234
REMARK   97  A    between atoms: _233  and  _236
REMARK   98  A    between atoms: _236  and  _237
REMARK   99  A    between atoms: _240  and  _242
REMARK  100  A    between atoms: _242  and  _243
REMARK  101  A    between atoms: _245  and  _247
REMARK  102  A    between atoms: _247  and  _248
REMARK  103  A    between atoms: _247  and  _250
REMARK  104  A    between atoms: _250  and  _251
REMARK  105  A    between atoms: _251  and  _252
REMARK  106  A    between atoms: _252  and  _253
REMARK  107  A    between atoms: _262  and  _264
REMARK  108  A    between atoms: _264  and  _265
REMARK  109  A    between atoms: _264  and  _267
REMARK  110  A    between atoms: _267  and  _268
REMARK  111  A    between atoms: _273  and  _275
REMARK  112  A    between atoms: _275  and  _276
REMARK  113  A    between atoms: _275  and  _278
REMARK  114  A    between atoms: _278  and  _279
REMARK  115  A    between atoms: _279  and  _280
REMARK  116  A    between atoms: _280  and  _281
REMARK  117  A    between atoms: _290  and  _292
REMARK  118  A    between atoms: _292  and  _293
REMARK  119  A    between atoms: _292  and  _295
REMARK  120  A    between atoms: _295  and  _296
REMARK  121  A    between atoms: _299  and  _301
REMARK  122  A    between atoms: _301  and  _302
REMARK  123  A    between atoms: _301  and  _304
REMARK  124  A    between atoms: _304  and  _305
REMARK  125  A    between atoms: _308  and  _310
REMARK  126  A    between atoms: _310  and  _311
REMARK  127  A    between atoms: _310  and  _313
REMARK  128  A    between atoms: _313  and  _314
REMARK  129  A    between atoms: _317  and  _319
REMARK  130  A    between atoms: _319  and  _320
REMARK  131  A    between atoms: _319  and  _322
REMARK  132  A    between atoms: _322  and  _323
REMARK  133  A    between atoms: _326  and  _328
REMARK  134  A    between atoms: _328  and  _329
REMARK  135  A    between atoms: _328  and  _331
REMARK  136  A    between atoms: _331  and  _332
REMARK  137  A    between atoms: _335  and  _337
REMARK  138  A    between atoms: _337  and  _338
REMARK  139  A    between atoms: _340  and  _342
REMARK  140  A    between atoms: _342  and  _343
REMARK  141  A    between atoms: _346  and  _348
REMARK  142  A    between atoms: _348  and  _349
REMARK  143  A    between atoms: _348  and  _351
REMARK  144  A    between atoms: _351  and  _352
REMARK  145  A    between atoms: _355  and  _357
REMARK  146  A    between atoms: _357  and  _358
REMARK  147  A    between atoms: _357  and  _360
REMARK  148  A    between atoms: _360  and  _361
REMARK  149  A    between atoms: _366  and  _368
REMARK  150  A    between atoms: _368  and  _369
REMARK  151  A    between atoms: _368  and  _371
REMARK  152  A    between atoms: _371  and  _372
REMARK  153  A    between atoms: _375  and  _377
REMARK  154  A    between atoms: _377  and  _378
REMARK  155  A    between atoms: _377  and  _380
REMARK  156  A    between atoms: _383  and  _385
REMARK  157  A    between atoms: _385  and  _386
REMARK  158  A    between atoms: _385  and  _388
REMARK  159  A    between atoms: _388  and  _389
REMARK  160  A    between atoms: _389  and  _390
REMARK  161  A    between atoms: _390  and  _391
REMARK  162  A    between atoms: _391  and  _392
REMARK  163  A    between atoms: _396  and  _398
REMARK  164  A    between atoms: _398  and  _399
REMARK  165  A    between atoms: _398  and  _401
REMARK  166  A    between atoms: _401  and  _402
REMARK  167  A    between atoms: _402  and  _403
REMARK  168  A    between atoms: _405  and  _407
REMARK  169  A    between atoms: _407  and  _408
REMARK  170  A    between atoms: _407  and  _410
REMARK  171  A    between atoms: _410  and  _411
REMARK  172  A    between atoms: _414  and  _416
REMARK  173  A    between atoms: _416  and  _417
REMARK  174  A    between atoms: _419  and  _421
REMARK  175  A    between atoms: _421  and  _422
REMARK  176  A    between atoms: _424  and  _426
REMARK  177  A    between atoms: _426  and  _427
REMARK  178  A    between atoms: _426  and  _429
REMARK  179  A    between atoms: _429  and  _430
REMARK  180  A    between atoms: _433  and  _435
REMARK  181  A    between atoms: _435  and  _436
REMARK  182  A    between atoms: _438  and  _440
REMARK  183  A    between atoms: _440  and  _441
REMARK  184  A    between atoms: _443  and  _445
REMARK  185  A    between atoms: _445  and  _446
REMARK  186  A    between atoms: _445  and  _448
REMARK  187  A    between atoms: _448  and  _449
REMARK  188  A    between atoms: _455  and  _457
REMARK  189  A    between atoms: _457  and  _458
REMARK  190  A    between atoms: _457  and  _460
REMARK  191  A    between atoms: _460  and  _461
REMARK  192  A    between atoms: _464  and  _466
REMARK  193  A    between atoms: _466  and  _467
REMARK  194  A    between atoms: _466  and  _469
REMARK  195  A    between atoms: _472  and  _474
REMARK  196  A    between atoms: _474  and  _475
REMARK  197  A    between atoms: _474  and  _477
REMARK  198  A    between atoms: _477  and  _478
REMARK  199  A    between atoms: _481  and  _483
REMARK  200  A    between atoms: _483  and  _484
REMARK  201  A    between atoms: _483  and  _486
REMARK  202  A    between atoms: _486  and  _487
REMARK  203  A    between atoms: _491  and  _492
REMARK  204  A    between atoms: _497  and  _499
REMARK  205  A    between atoms: _499  and  _500
REMARK  206  A    between atoms: _499  and  _502
REMARK  207  A    between atoms: _505  and  _507
REMARK  208  A    between atoms: _507  and  _508
REMARK  209  A    between atoms: _507  and  _510
REMARK  210  A    between atoms: _510  and  _511
REMARK  211  A    between atoms: _516  and  _518
REMARK  212  A    between atoms: _518  and  _519
REMARK  213  A    between atoms: _518  and  _521
REMARK  214  A    between atoms: _521  and  _522
REMARK  215  A    between atoms: _525  and  _527
REMARK  216  A    between atoms: _527  and  _528
REMARK  217  A    between atoms: _527  and  _530
REMARK  218  A    between atoms: _530  and  _531
REMARK  219  A    between atoms: _534  and  _536
REMARK  220  A    between atoms: _536  and  _537
REMARK  221  A    between atoms: _539  and  _541
REMARK  222  A    between atoms: _541  and  _542
REMARK  223  A    between atoms: _541  and  _544
REMARK  224  A    between atoms: _544  and  _545
REMARK  225  A    between atoms: _545  and  _546
REMARK  226  A    between atoms: _546  and  _547
REMARK  227  A    between atoms: _556  and  _558
REMARK  228  A    between atoms: _558  and  _559
REMARK  229  A    between atoms: _558  and  _561
REMARK  230  A    between atoms: _561  and  _562
REMARK                            x       y       z     vdW  Elec       q    Type
REMARK                         _______ _______ _______ _____ _____    ______ ____
ROOT
ATOM      1  NE  ARG A   1      -3.795  22.936  21.645  0.00  0.00    -0.265 N 
ATOM      2  CZ  ARG A   1      -3.011  21.917  22.003  0.00  0.00    +0.342 C 
ATOM      3  NH2 ARG A   1      -2.204  22.012  23.063  0.00  0.00    -0.292 N 
ATOM      4 HH21 ARG A   1      -2.181  22.889  23.622  0.00  0.00    +0.255 HD
ATOM      5 HH22 ARG A   1      -1.599  21.209  23.329  0.00  0.00    +0.255 HD
ATOM      6  NH1 ARG A   1      -3.033  20.792  21.301  0.00  0.00    -0.292 N 
ATOM      7 HH11 ARG A   1      -2.424  19.995  21.576  0.00  0.00    +0.255 HD
ATOM      8 HH12 ARG A   1      -3.659  20.706  20.475  0.00  0.00    +0.255 HD
ATOM      9  HE  ARG A   1      -4.402  22.806  20.810  0.00  0.00    +0.259 HD
ENDROOT
BRANCH   1  10
ATOM     10  CD  ARG A   1      -3.865  24.224  22.340  0.00  0.00    +0.174 C 
BRANCH  10  11
ATOM     11  CG  ARG A   1      -5.016  25.090  21.829  0.00  0.00    +0.045 C 
BRANCH  11  12
ATOM     12  CB  ARG A   1      -5.087  26.394  22.613  0.00  0.00    +0.029 C 
BRANCH  12  13
ATOM     13  CA  ARG A   1      -6.260  27.295  22.228  0.00  0.00    +0.133 C 
BRANCH  13  14
ATOM     14  N   ARG A   1      -6.088  27.886  20.890  0.00  0.00    -0.239 NA
ATOM     15  H   ARG A   1      -5.243  27.658  20.328  0.00  0.00    +0.142 HD
ENDBRANCH  13  14
BRANCH  13  16
ATOM     16  C   ARG A   1      -6.394  28.403  23.266  0.00  0.00    +0.224 C 
ATOM     17  O   ARG A   1      -5.641  29.397  23.212  0.00  0.00    -0.287 OA
ENDBRANCH  13  16
ENDBRANCH  12  13
ENDBRANCH  11  12
ENDBRANCH  10  11
ENDBRANCH   1  10
TORSDOF 6
REMARK  Name = ../refined-set-2016/2pyn/2pyn_pocket.pdb
REMARK  230 active torsions:
REMARK  status: ('A' for Active; 'I' for Inactive)
REMARK    1  A    between atoms: _1  and  _3
REMARK    2  A    between atoms: _3  and  _4
REMARK    3  A    between atoms: _3  and  _6
REMARK    4  A    between atoms: _6  and  _7
REMARK    5  A    between atoms: _7  and  _8
REMARK    6  A    between atoms: _8  and  _9
REMARK    7  A    between atoms: _18  and  _20
REMARK    8  A    between atoms: _20  and  _21
REMARK    9  A    between atoms: _20  and  _23
REMARK   10  A    between atoms: _23  and  _24
REMARK   11  A    between atoms: _27  and  _29
REMARK   12  A    between atoms: _29  and  _30
REMARK   13  A    between atoms: _29  and  _32
REMARK   14  A    between atoms: _32  and  _33
REMARK   15  A    between atoms: _36  and  _38
REMARK   16  A    between atoms: _38  and  _39
REMARK   17  A    between atoms: _38  and  _41
REMARK   18  A    between atoms: _41  and  _42
REMARK   19  A    between atoms: _45  and  _47
REMARK   20  A    between atoms: _47  and  _48
REMARK   21  A    between atoms: _47  and  _50
REMARK   22  A    between atoms: _50  and  _51
REMARK   23  A    between atoms: _54  and  _56
REMARK   24  A    between atoms: _56  and  _57
REMARK   25  A    between atoms: _59  and  _61
REMARK   26  A    between atoms: _61  and  _62
REMARK   27  A    between atoms: _65  and  _67
REMARK   28  A    between atoms: _67  and  _68
REMARK   29  A    between atoms: _67  and  _70
REMARK   30  A    between atoms: _70  and  _71
REMARK   31  A    between atoms: _74  and  _76
REMARK   32  A    between atoms: _76  and  _77
REMARK   33  A    between atoms: _76  and  _79
REMARK   34  A    between atoms: _79  and  _80
REMARK   35  A    between atoms: _85  and  _87
REMARK   36  A    between atoms: _87  and  _88
REMARK   37  A    between atoms: _87  and  _90
REMARK   38  A    between atoms: _90  and  _91
REMARK   39  A    between atoms: _94  and  _96
REMARK   40  A    between atoms: _96  and  _97
REMARK   41  A    between atoms: _96  and  _99
REMARK   42  A    between atoms: _102  and  _104
REMARK   43  A    between atoms: _104  and  _105
REMARK   44  A    between atoms: _104  and  _107
REMARK   45  A    between atoms: _107  and  _108
REMARK   46  A    between atoms: _108  and  _109
REMARK   47  A    between atoms: _109  and  _110
REMARK   48  A    between atoms: _110  and  _111
REMARK   49  A    between atoms: _115  and  _117
REMARK   50  A    between atoms: _117  and  _118
REMARK   51  A    between atoms: _117  and  _120
REMARK   52  A    between atoms: _120  and  _121
REMARK   53  A    between atoms: _121  and  _122
REMARK   54  A    between atoms: _124  and  _126
REMARK   55  A    between atoms: _126  and  _127
REMARK   56  A    between atoms: _126  and  _129
REMARK   57  A    between atoms: _129  and  _130
REMARK   58  A    between atoms: _133  and  _135
REMARK   59  A    between atoms: _135  and  _136
REMARK   60  A    between atoms: _138  and  _140
REMARK   61  A    between atoms: _140  and  _141
REMARK   62  A    between atoms: _143  and  _145
REMARK   63  A    between atoms: _145  and  _146
REMARK   64  A    between atoms: _145  and  _148
REMARK   65  A    between atoms: _148  and  _149
REMARK   66  A    between atoms: _152  and  _154
REMARK   67  A    between atoms: _154  and  _155
REMARK   68  A    between atoms: _157  and  _159
REMARK   69  A    between atoms: _159  and  _160
REMARK   70  A    between atoms: _162  and  _164
REMARK   71  A    between atoms: _164  and  _165
REMARK   72  A    between atoms: _164  and  _167
REMARK   73  A    between atoms: _167  and  _168
REMARK   74  A    between atoms: _171  and  _173
REMARK   75  A    between atoms: _173  and  _174
REMARK   76  A    between atoms: _173  and  _176
REMARK   77  A    between atoms: _176  and  _177
REMARK   78  A    between atoms: _181  and  _182
REMARK   79  A    between atoms: _187  and  _189
REMARK   80  A    between atoms: _189  and  _190
REMARK   81  A    between atoms: _189  and  _192
REMARK   82  A    between atoms: _192  and  _193
REMARK   83  A    between atoms: _197  and  _198
REMARK   84  A    between atoms: _203  and  _205
REMARK   85  A    between atoms: _205  and  _206
REMARK   86  A    between atoms: _205  and  _208
REMARK   87  A    between atoms: _211  and  _213
REMARK   88  A    between atoms: _213  and  _214
REMARK   89  A    between atoms: _213  and  _216
REMARK   90  A    between atoms: _216  and  _217
REMARK   91  A    between atoms: _222  and  _224
REMARK   92  A    between atoms: _224  and  _225
REMARK   93  A    between atoms: _224  and  _227
REMARK   94  A    between atoms: _227  and  _228
REMARK   95  A    between atoms: _231  and  _233
REMARK   96  A    between atoms: _233  and  _234
REMARK   97  A    between atoms: _233  and  _236
REMARK   98  A    between atoms: _236  and  _237
REMARK   99  A    between atoms: _240  and  _242
REMARK  100  A    between atoms: _242  and  _243
REMARK  101  A    between atoms: _245  and  _247
REMARK  102  A    between atoms: _247  and  _248
REMARK  103  A    between atoms: _247  and  _250
REMARK  104  A    between atoms: _250  and  _251
REMARK  105  A    between atoms: _251  and  _252
REMARK  106  A    between atoms: _252  and  _253
REMARK  107  A    between atoms: _262  and  _264
REMARK  108  A    between atoms: _264  and  _265
REMARK  109  A    between atoms: _264  and  _267
REMARK  110  A    between atoms: _267  and  _268
REMARK  111  A    between atoms: _273  and  _275
REMARK  112  A    between atoms: _275  and  _276
REMARK  113  A    between atoms: _275  and  _278
REMARK  114  A    between atoms: _278  and  _279
REMARK  115  A    between atoms: _279  and  _280
REMARK  116  A    between atoms: _280  and  _281
REMARK  117  A    between atoms: _290  and  _292
REMARK  118  A    between atoms: _292  and  _293
REMARK  119  A    between atoms: _292  and  _295
REMARK  120  A    between atoms: _295  and  _296
REMARK  121  A    between atoms: _299  and  _301
REMARK  122  A    between atoms: _301  and  _302
REMARK  123  A    between atoms: _301  and  _304
REMARK  124  A    between atoms: _304  and  _305
REMARK  125  A    between atoms: _308  and  _310
REMARK  126  A    between atoms: _310  and  _311
REMARK  127  A    between atoms: _310  and  _313
REMARK  128  A    between atoms: _313  and  _314
REMARK  129  A    between atoms: _317  and  _319
REMARK  130  A    between atoms: _319  and  _320
REMARK  131  A    between atoms: _319  and  _322
REMARK  132  A    between atoms: _322  and  _323
REMARK  133  A    between atoms: _326  and  _328
REMARK  134  A    between atoms: _328  and  _329
REMARK  135  A    between atoms: _328  and  _331
REMARK  136  A    between atoms: _331  and  _332
REMARK  137  A    between atoms: _335  and  _337
REMARK  138  A    between atoms: _337  and  _338
REMARK  139  A    between atoms: _340  and  _342
REMARK  140  A    between atoms: _342  and  _343
REMARK  141  A    between atoms: _346  and  _348
REMARK  142  A    between atoms: _348  and  _349
REMARK  143  A    between atoms: _348  and  _351
REMARK  144  A    between atoms: _351  and  _352
REMARK  145  A    between atoms: _355  and  _357
REMARK  146  A    between atoms: _357  and  _358
REMARK  147  A    between atoms: _357  and  _360
REMARK  148  A    between atoms: _360  and  _361
REMARK  149  A    between atoms: _366  and  _368
REMARK  150  A    between atoms: _368  and  _369
REMARK  151  A    between atoms: _368  and  _371
REMARK  152  A    between atoms: _371  and  _372
REMARK  153  A    between atoms: _375  and  _377
REMARK  154  A    between atoms: _377  and  _378
REMARK  155  A    between atoms: _377  and  _380
REMARK  156  A    between atoms: _383  and  _385
REMARK  157  A    between atoms: _385  and  _386
REMARK  158  A    between atoms: _385  and  _388
REMARK  159  A    between atoms: _388  and  _389
REMARK  160  A    between atoms: _389  and  _390
REMARK  161  A    between atoms: _390  and  _391
REMARK  162  A    between atoms: _391  and  _392
REMARK  163  A    between atoms: _396  and  _398
REMARK  164  A    between atoms: _398  and  _399
REMARK  165  A    between atoms: _398  and  _401
REMARK  166  A    between atoms: _401  and  _402
REMARK  167  A    between atoms: _402  and  _403
REMARK  168  A    between atoms: _405  and  _407
REMARK  169  A    between atoms: _407  and  _408
REMARK  170  A    between atoms: _407  and  _410
REMARK  171  A    between atoms: _410  and  _411
REMARK  172  A    between atoms: _414  and  _416
REMARK  173  A    between atoms: _416  and  _417
REMARK  174  A    between atoms: _419  and  _421
REMARK  175  A    between atoms: _421  and  _422
REMARK  176  A    between atoms: _424  and  _426
REMARK  177  A    between atoms: _426  and  _427
REMARK  178  A    between atoms: _426  and  _429
REMARK  179  A    between atoms: _429  and  _430
REMARK  180  A    between atoms: _433  and  _435
REMARK  181  A    between atoms: _435  and  _436
REMARK  182  A    between atoms: _438  and  _440
REMARK  183  A    between atoms: _440  and  _441
REMARK  184  A    between atoms: _443  and  _445
REMARK  185  A    between atoms: _445  and  _446
REMARK  186  A    between atoms: _445  and  _448
REMARK  187  A    between atoms: _448  and  _449
REMARK  188  A    between atoms: _455  and  _457
REMARK  189  A    between atoms: _457  and  _458
REMARK  190  A    between atoms: _457  and  _460
REMARK  191  A    between atoms: _460  and  _461
REMARK  192  A    between atoms: _464  and  _466
REMARK  193  A    between atoms: _466  and  _467
REMARK  194  A    between atoms: _466  and  _469
REMARK  195  A    between atoms: _472  and  _474
REMARK  196  A    between atoms: _474  and  _475
REMARK  197  A    between atoms: _474  and  _477
REMARK  198  A    between atoms: _477  and  _478
REMARK  199  A    between atoms: _481  and  _483
REMARK  200  A    between atoms: _483  and  _484
REMARK  201  A    between atoms: _483  and  _486
REMARK  202  A    between atoms: _486  and  _487
REMARK  203  A    between atoms: _491  and  _492
REMARK  204  A    between atoms: _497  and  _499
REMARK  205  A    between atoms: _499  and  _500
REMARK  206  A    between atoms: _499  and  _502
REMARK  207  A    between atoms: _505  and  _507
REMARK  208  A    between atoms: _507  and  _508
REMARK  209  A    between atoms: _507  and  _510
REMARK  210  A    between atoms: _510  and  _511
REMARK  211  A    between atoms: _516  and  _518
REMARK  212  A    between atoms: _518  and  _519
REMARK  213  A    between atoms: _518  and  _521
REMARK  214  A    between atoms: _521  and  _522
REMARK  215  A    between atoms: _525  and  _527
REMARK  216  A    between atoms: _527  and  _528
REMARK  217  A    between atoms: _527  and  _530
REMARK  218  A    between atoms: _530  and  _531
REMARK  219  A    between atoms: _534  and  _536
REMARK  220  A    between atoms: _536  and  _537
REMARK  221  A    between atoms: _539  and  _541
REMARK  222  A    between atoms: _541  and  _542
REMARK  223  A    between atoms: _541  and  _544
REMARK  224  A    between atoms: _544  and  _545
REMARK  225  A    between atoms: _545  and  _546
REMARK  226  A    between atoms: _546  and  _547
REMARK  227  A    between atoms: _556  and  _558
REMARK  228  A    between atoms: _558  and  _559
REMARK  229  A    between atoms: _558  and  _561
REMARK  230  A    between atoms: _561  and  _562
REMARK                            x       y       z     vdW  Elec       q    Type
REMARK                         _______ _______ _______ _____ _____    ______ ____
ROOT
ATOM      1  CA  LEU A   1      -4.258  29.532  27.090  0.00  0.00    +0.133 C 
ENDROOT
BRANCH   1   2
ATOM      2  N   LEU A   1      -5.356  29.582  26.134  0.00  0.00    -0.239 NA
ATOM      3  H   LEU A   1      -5.182  30.013  25.204  0.00  0.00    +0.142 HD
ENDBRANCH   1   2
BRANCH   1   4
ATOM      4  C   LEU A   1      -4.226  30.813  27.923  0.00  0.00    +0.224 C 
ATOM      5  O   LEU A   1      -4.410  31.921  27.384  0.00  0.00    -0.287 OA
ENDBRANCH   1   4
BRANCH   1   6
ATOM      6  CB  LEU A   1      -2.923  29.375  26.337  0.00  0.00    +0.025 C 
BRANCH   6   7
ATOM      7  CG  LEU A   1      -2.777  28.041  25.584  0.00  0.00    +0.002 C 
ATOM      8  CD2 LEU A   1      -2.632  26.871  26.580  0.00  0.00    +0.000 C 
ATOM      9  CD1 LEU A   1      -1.613  28.076  24.589  0.00  0.00    +0.000 C 
ENDBRANCH   6   7
ENDBRANCH   1   6
TORSDOF 4
REMARK  Name = ../refined-set-2016/2pyn/2pyn_pocket.pdb
REMARK  230 active torsions:
REMARK  status: ('A' for Active; 'I' for Inactive)
REMARK    1  A    between atoms: _1  and  _3
REMARK    2  A    between atoms: _3  and  _4
REMARK    3  A    between atoms: _3  and  _6
REMARK    4  A    between atoms: _6  and  _7
REMARK    5  A    between atoms: _7  and  _8
REMARK    6  A    between atoms: _8  and  _9
REMARK    7  A    between atoms: _18  and  _20
REMARK    8  A    between atoms: _20  and  _21
REMARK    9  A    between atoms: _20  and  _23
REMARK   10  A    between atoms: _23  and  _24
REMARK   11  A    between atoms: _27  and  _29
REMARK   12  A    between atoms: _29  and  _30
REMARK   13  A    between atoms: _29  and  _32
REMARK   14  A    between atoms: _32  and  _33
REMARK   15  A    between atoms: _36  and  _38
REMARK   16  A    between atoms: _38  and  _39
REMARK   17  A    between atoms: _38  and  _41
REMARK   18  A    between atoms: _41  and  _42
REMARK   19  A    between atoms: _45  and  _47
REMARK   20  A    between atoms: _47  and  _48
REMARK   21  A    between atoms: _47  and  _50
REMARK   22  A    between atoms: _50  and  _51
REMARK   23  A    between atoms: _54  and  _56
REMARK   24  A    between atoms: _56  and  _57
REMARK   25  A    between atoms: _59  and  _61
REMARK   26  A    between atoms: _61  and  _62
REMARK   27  A    between atoms: _65  and  _67
REMARK   28  A    between atoms: _67  and  _68
REMARK   29  A    between atoms: _67  and  _70
REMARK   30  A    between atoms: _70  and  _71
REMARK   31  A    between atoms: _74  and  _76
REMARK   32  A    between atoms: _76  and  _77
REMARK   33  A    between atoms: _76  and  _79
REMARK   34  A    between atoms: _79  and  _80
REMARK   35  A    between atoms: _85  and  _87
REMARK   36  A    between atoms: _87  and  _88
REMARK   37  A    between atoms: _87  and  _90
REMARK   38  A    between atoms: _90  and  _91
REMARK   39  A    between atoms: _94  and  _96
REMARK   40  A    between atoms: _96  and  _97
REMARK   41  A    between atoms: _96  and  _99
REMARK   42  A    between atoms: _102  and  _104
REMARK   43  A    between atoms: _104  and  _105
REMARK   44  A    between atoms: _104  and  _107
REMARK   45  A    between atoms: _107  and  _108
REMARK   46  A    between atoms: _108  and  _109
REMARK   47  A    between atoms: _109  and  _110
REMARK   48  A    between atoms: _110  and  _111
REMARK   49  A    between atoms: _115  and  _117
REMARK   50  A    between atoms: _117  and  _118
REMARK   51  A    between atoms: _117  and  _120
REMARK   52  A    between atoms: _120  and  _121
REMARK   53  A    between atoms: _121  and  _122
REMARK   54  A    between atoms: _124  and  _126
REMARK   55  A    between atoms: _126  and  _127
REMARK   56  A    between atoms: _126  and  _129
REMARK   57  A    between atoms: _129  and  _130
REMARK   58  A    between atoms: _133  and  _135
REMARK   59  A    between atoms: _135  and  _136
REMARK   60  A    between atoms: _138  and  _140
REMARK   61  A    between atoms: _140  and  _141
REMARK   62  A    between atoms: _143  and  _145
REMARK   63  A    between atoms: _145  and  _146
REMARK   64  A    between atoms: _145  and  _148
REMARK   65  A    between atoms: _148  and  _149
REMARK   66  A    between atoms: _152  and  _154
REMARK   67  A    between atoms: _154  and  _155
REMARK   68  A    between atoms: _157  and  _159
REMARK   69  A    between atoms: _159  and  _160
REMARK   70  A    between atoms: _162  and  _164
REMARK   71  A    between atoms: _164  and  _165
REMARK   72  A    between atoms: _164  and  _167
REMARK   73  A    between atoms: _167  and  _168
REMARK   74  A    between atoms: _171  and  _173
REMARK   75  A    between atoms: _173  and  _174
REMARK   76  A    between atoms: _173  and  _176
REMARK   77  A    between atoms: _176  and  _177
REMARK   78  A    between atoms: _181  and  _182
REMARK   79  A    between atoms: _187  and  _189
REMARK   80  A    between atoms: _189  and  _190
REMARK   81  A    between atoms: _189  and  _192
REMARK   82  A    between atoms: _192  and  _193
REMARK   83  A    between atoms: _197  and  _198
REMARK   84  A    between atoms: _203  and  _205
REMARK   85  A    between atoms: _205  and  _206
REMARK   86  A    between atoms: _205  and  _208
REMARK   87  A    between atoms: _211  and  _213
REMARK   88  A    between atoms: _213  and  _214
REMARK   89  A    between atoms: _213  and  _216
REMARK   90  A    between atoms: _216  and  _217
REMARK   91  A    between atoms: _222  and  _224
REMARK   92  A    between atoms: _224  and  _225
REMARK   93  A    between atoms: _224  and  _227
REMARK   94  A    between atoms: _227  and  _228
REMARK   95  A    between atoms: _231  and  _233
REMARK   96  A    between atoms: _233  and  _234
REMARK   97  A    between atoms: _233  and  _236
REMARK   98  A    between atoms: _236  and  _237
REMARK   99  A    between atoms: _240  and  _242
REMARK  100  A    between atoms: _242  and  _243
REMARK  101  A    between atoms: _245  and  _247
REMARK  102  A    between atoms: _247  and  _248
REMARK  103  A    between atoms: _247  and  _250
REMARK  104  A    between atoms: _250  and  _251
REMARK  105  A    between atoms: _251  and  _252
REMARK  106  A    between atoms: _252  and  _253
REMARK  107  A    between atoms: _262  and  _264
REMARK  108  A    between atoms: _264  and  _265
REMARK  109  A    between atoms: _264  and  _267
REMARK  110  A    between atoms: _267  and  _268
REMARK  111  A    between atoms: _273  and  _275
REMARK  112  A    between atoms: _275  and  _276
REMARK  113  A    between atoms: _275  and  _278
REMARK  114  A    between atoms: _278  and  _279
REMARK  115  A    between atoms: _279  and  _280
REMARK  116  A    between atoms: _280  and  _281
REMARK  117  A    between atoms: _290  and  _292
REMARK  118  A    between atoms: _292  and  _293
REMARK  119  A    between atoms: _292  and  _295
REMARK  120  A    between atoms: _295  and  _296
REMARK  121  A    between atoms: _299  and  _301
REMARK  122  A    between atoms: _301  and  _302
REMARK  123  A    between atoms: _301  and  _304
REMARK  124  A    between atoms: _304  and  _305
REMARK  125  A    between atoms: _308  and  _310
REMARK  126  A    between atoms: _310  and  _311
REMARK  127  A    between atoms: _310  and  _313
REMARK  128  A    between atoms: _313  and  _314
REMARK  129  A    between atoms: _317  and  _319
REMARK  130  A    between atoms: _319  and  _320
REMARK  131  A    between atoms: _319  and  _322
REMARK  132  A    between atoms: _322  and  _323
REMARK  133  A    between atoms: _326  and  _328
REMARK  134  A    between atoms: _328  and  _329
REMARK  135  A    between atoms: _328  and  _331
REMARK  136  A    between atoms: _331  and  _332
REMARK  137  A    between atoms: _335  and  _337
REMARK  138  A    between atoms: _337  and  _338
REMARK  139  A    between atoms: _340  and  _342
REMARK  140  A    between atoms: _342  and  _343
REMARK  141  A    between atoms: _346  and  _348
REMARK  142  A    between atoms: _348  and  _349
REMARK  143  A    between atoms: _348  and  _351
REMARK  144  A    between atoms: _351  and  _352
REMARK  145  A    between atoms: _355  and  _357
REMARK  146  A    between atoms: _357  and  _358
REMARK  147  A    between atoms: _357  and  _360
REMARK  148  A    between atoms: _360  and  _361
REMARK  149  A    between atoms: _366  and  _368
REMARK  150  A    between atoms: _368  and  _369
REMARK  151  A    between atoms: _368  and  _371
REMARK  152  A    between atoms: _371  and  _372
REMARK  153  A    between atoms: _375  and  _377
REMARK  154  A    between atoms: _377  and  _378
REMARK  155  A    between atoms: _377  and  _380
REMARK  156  A    between atoms: _383  and  _385
REMARK  157  A    between atoms: _385  and  _386
REMARK  158  A    between atoms: _385  and  _388
REMARK  159  A    between atoms: _388  and  _389
REMARK  160  A    between atoms: _389  and  _390
REMARK  161  A    between atoms: _390  and  _391
REMARK  162  A    between atoms: _391  and  _392
REMARK  163  A    between atoms: _396  and  _398
REMARK  164  A    between atoms: _398  and  _399
REMARK  165  A    between atoms: _398  and  _401
REMARK  166  A    between atoms: _401  and  _402
REMARK  167  A    between atoms: _402  and  _403
REMARK  168  A    between atoms: _405  and  _407
REMARK  169  A    between atoms: _407  and  _408
REMARK  170  A    between atoms: _407  and  _410
REMARK  171  A    between atoms: _410  and  _411
REMARK  172  A    between atoms: _414  and  _416
REMARK  173  A    between atoms: _416  and  _417
REMARK  174  A    between atoms: _419  and  _421
REMARK  175  A    between atoms: _421  and  _422
REMARK  176  A    between atoms: _424  and  _426
REMARK  177  A    between atoms: _426  and  _427
REMARK  178  A    between atoms: _426  and  _429
REMARK  179  A    between atoms: _429  and  _430
REMARK  180  A    between atoms: _433  and  _435
REMARK  181  A    between atoms: _435  and  _436
REMARK  182  A    between atoms: _438  and  _440
REMARK  183  A    between atoms: _440  and  _441
REMARK  184  A    between atoms: _443  and  _445
REMARK  185  A    between atoms: _445  and  _446
REMARK  186  A    between atoms: _445  and  _448
REMARK  187  A    between atoms: _448  and  _449
REMARK  188  A    between atoms: _455  and  _457
REMARK  189  A    between atoms: _457  and  _458
REMARK  190  A    between atoms: _457  and  _460
REMARK  191  A    between atoms: _460  and  _461
REMARK  192  A    between atoms: _464  and  _466
REMARK  193  A    between atoms: _466  and  _467
REMARK  194  A    between atoms: _466  and  _469
REMARK  195  A    between atoms: _472  and  _474
REMARK  196  A    between atoms: _474  and  _475
REMARK  197  A    between atoms: _474  and  _477
REMARK  198  A    between atoms: _477  and  _478
REMARK  199  A    between atoms: _481  and  _483
REMARK  200  A    between atoms: _483  and  _484
REMARK  201  A    between atoms: _483  and  _486
REMARK  202  A    between atoms: _486  and  _487
REMARK  203  A    between atoms: _491  and  _492
REMARK  204  A    between atoms: _497  and  _499
REMARK  205  A    between atoms: _499  and  _500
REMARK  206  A    between atoms: _499  and  _502
REMARK  207  A    between atoms: _505  and  _507
REMARK  208  A    between atoms: _507  and  _508
REMARK  209  A    between atoms: _507  and  _510
REMARK  210  A    between atoms: _510  and  _511
REMARK  211  A    between atoms: _516  and  _518
REMARK  212  A    between atoms: _518  and  _519
REMARK  213  A    between atoms: _518  and  _521
REMARK  214  A    between atoms: _521  and  _522
REMARK  215  A    between atoms: _525  and  _527
REMARK  216  A    between atoms: _527  and  _528
REMARK  217  A    between atoms: _527  and  _530
REMARK  218  A    between atoms: _530  and  _531
REMARK  219  A    between atoms: _534  and  _536
REMARK  220  A    between atoms: _536  and  _537
REMARK  221  A    between atoms: _539  and  _541
REMARK  222  A    between atoms: _541  and  _542
REMARK  223  A    between atoms: _541  and  _544
REMARK  224  A    between atoms: _544  and  _545
REMARK  225  A    between atoms: _545  and  _546
REMARK  226  A    between atoms: _546  and  _547
REMARK  227  A    between atoms: _556  and  _558
REMARK  228  A    between atoms: _558  and  _559
REMARK  229  A    between atoms: _558  and  _561
REMARK  230  A    between atoms: _561  and  _562
REMARK                            x       y       z     vdW  Elec       q    Type
REMARK                         _______ _______ _______ _____ _____    ______ ____
ROOT
ATOM      1  C   GLY A   5     -13.463  18.471  30.072  0.00  0.00    +0.243 C 
ATOM      2  N   ALA A   6     -12.738  19.169  30.942  0.00  0.00    -0.297 N 
ATOM      3  H   ALA A   6     -12.663  20.199  30.820  0.00  0.00    +0.150 HD
ATOM      4  O   GLY A   5     -13.596  17.248  30.158  0.00  0.00    -0.273 OA
ENDROOT
BRANCH   2   5
ATOM      5  CA  ALA A   6     -12.045  18.540  32.061  0.00  0.00    +0.149 C 
ATOM      6  CB  ALA A   6     -10.611  19.138  32.178  0.00  0.00    +0.031 C 
BRANCH   5   7
ATOM      7  C   ALA A   6     -12.816  18.800  33.351  0.00  0.00    +0.241 C 
ATOM      8  N   ASP A   7     -13.137  17.737  34.098  0.00  0.00    -0.297 N 
ATOM      9  H   ASP A   7     -12.919  16.784  33.743  0.00  0.00    +0.150 HD
ATOM     10  O   ALA A   6     -13.114  19.949  33.668  0.00  0.00    -0.273 OA
BRANCH   8  11
ATOM     11  CA  ASP A   7     -13.789  17.882  35.406  0.00  0.00    +0.160 C 
BRANCH  11  12
ATOM     12  C   ASP A   7     -12.836  18.486  36.428  0.00  0.00    +0.241 C 
ATOM     13  O   ASP A   7     -13.271  19.183  37.350  0.00  0.00    -0.273 OA
ATOM     14  N   ASN A   8     -11.544  18.178  36.272  0.00  0.00    -0.297 N 
ATOM     15  H   ASN A   8     -11.260  17.678  35.405  0.00  0.00    +0.150 HD
BRANCH  14  16
ATOM     16  CA  ASN A   8     -10.512  18.503  37.246  0.00  0.00    +0.158 C 
BRANCH  16  17
ATOM     17  C   ASN A   8      -9.393  19.356  36.655  0.00  0.00    +0.241 C 
ATOM     18  N   THR A   9      -8.556  19.886  37.546  0.00  0.00    -0.295 N 
ATOM     19  H   THR A   9      -8.730  19.723  38.558  0.00  0.00    +0.150 HD
ATOM     20  O   ASN A   8      -9.265  19.471  35.435  0.00  0.00    -0.273 OA
BRANCH  18  21
ATOM     21  CA  THR A   9      -7.400  20.689  37.148  0.00  0.00    +0.176 C 
BRANCH  21  22
ATOM     22  C   THR A   9      -6.139  19.838  37.299  0.00  0.00    +0.243 C 
ATOM     23  O   THR A   9      -5.892  19.260  38.368  0.00  0.00    -0.273 OA
ATOM     24  N   VAL A  10      -5.368  19.733  36.219  0.00  0.00    -0.298 N 
ATOM     25  H   VAL A  10      -5.576  20.325  35.390  0.00  0.00    +0.150 HD
BRANCH  24  26
ATOM     26  CA  VAL A  10      -4.231  18.803  36.167  0.00  0.00    +0.137 C 
BRANCH  26  27
ATOM     27  CB  VAL A  10      -4.461  17.608  35.206  0.00  0.00    +0.026 C 
ATOM     28  CG2 VAL A  10      -3.392  16.527  35.445  0.00  0.00    +0.002 C 
ATOM     29  CG1 VAL A  10      -5.861  17.026  35.370  0.00  0.00    +0.002 C 
ENDBRANCH  26  27
BRANCH  26  30
ATOM     30  C   VAL A  10      -3.009  19.571  35.703  0.00  0.00    +0.227 C 
ATOM     31  O   VAL A  10      -3.002  20.137  34.607  0.00  0.00    -0.286 OA
ENDBRANCH  26  30
ENDBRANCH  24  26
ENDBRANCH  21  22
BRANCH  21  32
ATOM     32  CB  THR A   9      -7.365  21.971  37.993  0.00  0.00    +0.137 C 
ATOM     33  CG2 THR A   9      -6.068  22.770  37.785  0.00  0.00    +0.034 C 
BRANCH  32  34
ATOM     34  OG1 THR A   9      -8.504  22.772  37.658  0.00  0.00    -0.382 OA
ATOM     35  HG1 THR A   9      -9.332  22.264  37.851  0.00  0.00    +0.210 HD
ENDBRANCH  32  34
ENDBRANCH  21  32
ENDBRANCH  18  21
ENDBRANCH  16  17
BRANCH  16  36
ATOM     36  CB  ASN A   8      -9.869  17.226  37.781  0.00  0.00    +0.114 C 
BRANCH  36  37
ATOM     37  CG  ASN A   8     -10.882  16.158  38.130  0.00  0.00    +0.222 C 
ATOM     38  OD1 ASN A   8     -11.578  16.254  39.138  0.00  0.00    -0.275 OA
ATOM     39  ND2 ASN A   8     -10.959  15.122  37.299  0.00  0.00    -0.329 N 
ATOM     40 HD21 ASN A   8     -11.629  14.350  37.491  0.00  0.00    +0.145 HD
ATOM     41 HD22 ASN A   8     -10.349  15.084  36.457  0.00  0.00    +0.145 HD
ENDBRANCH  36  37
ENDBRANCH  16  36
ENDBRANCH  14  16
ENDBRANCH  11  12
BRANCH  11  42
ATOM     42  CB  ASP A   7     -14.245  16.518  35.950  0.00  0.00    +0.143 C 
BRANCH  42  43
ATOM     43  CG  ASP A   7     -15.276  15.824  35.064  0.00  0.00    +0.367 C 
ATOM     44  OD2 ASP A   7     -15.429  14.590  35.237  0.00  0.00    -0.246 OA
ATOM     45  OD1 ASP A   7     -15.964  16.471  34.234  0.00  0.00    -0.246 OA
ENDBRANCH  42  43
ENDBRANCH  11  42
ENDBRANCH   8  11
ENDBRANCH   5   7
ENDBRANCH   2   5
BRANCH   1  46
ATOM     46  CA  GLY A   5     -14.117  19.241  28.928  0.00  0.00    +0.176 C 
BRANCH  46  49
ATOM     47  C   THR A   4     -14.799  21.452  29.753  0.00  0.00    +0.243 C 
ATOM     48  O   THR A   4     -15.754  20.995  30.399  0.00  0.00    -0.273 OA
ATOM     49  N   GLY A   5     -13.990  20.700  29.005  0.00  0.00    -0.295 N 
ATOM     50  H   GLY A   5     -13.240  21.166  28.455  0.00  0.00    +0.150 HD
BRANCH  47  51
ATOM     51  CA  THR A   4     -14.502  22.955  29.768  0.00  0.00    +0.176 C 
BRANCH  51  54
ATOM     52  C   ASP A   3     -12.092  22.919  30.088  0.00  0.00    +0.241 C 
ATOM     53  O   ASP A   3     -12.208  22.284  31.141  0.00  0.00    -0.273 OA
ATOM     54  N   THR A   4     -13.128  23.259  29.334  0.00  0.00    -0.295 N 
ATOM     55  H   THR A   4     -12.969  23.745  28.428  0.00  0.00    +0.150 HD
BRANCH  52  56
ATOM     56  CA  ASP A   3     -10.718  23.330  29.562  0.00  0.00    +0.160 C 
BRANCH  56  58
ATOM     57  C   LEU A   2      -9.865  25.581  29.343  0.00  0.00    +0.241 C 
ATOM     58  N   ASP A   3     -10.273  24.593  30.134  0.00  0.00    -0.297 N 
ATOM     59  H   ASP A   3     -10.274  24.723  31.166  0.00  0.00    +0.150 HD
ATOM     60  O   LEU A   2     -10.080  25.601  28.120  0.00  0.00    -0.273 OA
BRANCH  57  61
ATOM     61  CA  LEU A   2      -9.062  26.687  30.018  0.00  0.00    +0.149 C 
BRANCH  61  64
ATOM     62  C   LEU A   1      -6.830  25.707  29.798  0.00  0.00    +0.238 C 
ATOM     63  O   LEU A   1      -7.077  24.855  30.662  0.00  0.00    -0.274 OA
ATOM     64  N   LEU A   2      -7.702  26.664  29.451  0.00  0.00    -0.297 N 
ATOM     65  H   LEU A   2      -7.415  27.399  28.773  0.00  0.00    +0.150 HD
BRANCH  62  66
ATOM     66  CA  LEU A   1      -5.489  25.686  29.060  0.00  0.00    +0.145 C 
BRANCH  66  67
ATOM     67  N   LEU A   1      -4.402  25.673  30.020  0.00  0.00    -0.238 NA
ATOM     68  H   LEU A   1      -4.124  24.768  30.451  0.00  0.00    +0.142 HD
ENDBRANCH  66  67
BRANCH  66  69
ATOM     69  CB  LEU A   1      -5.392  24.396  28.235  0.00  0.00    +0.026 C 
BRANCH  69  70
ATOM     70  CG  LEU A   1      -6.351  24.087  27.090  0.00  0.00    +0.002 C 
ATOM     71  CD2 LEU A   1      -6.146  22.631  26.690  0.00  0.00    +0.000 C 
ATOM     72  CD1 LEU A   1      -6.069  24.963  25.902  0.00  0.00    +0.000 C 
ENDBRANCH  69  70
ENDBRANCH  66  69
ENDBRANCH  62  66
ENDBRANCH  61  64
BRANCH  61  73
ATOM     73  CB  LEU A   2      -9.737  28.035  29.803  0.00  0.00    +0.029 C 
BRANCH  73  74
ATOM     74  CG  LEU A   2      -9.023  29.266  30.396  0.00  0.00    +0.002 C 
ATOM     75  CD2 LEU A   2      -8.857  29.127  31.913  0.00  0.00    +0.000 C 
ATOM     76  CD1 LEU A   2      -9.808  30.520  29.994  0.00  0.00    +0.000 C 
ENDBRANCH  73  74
ENDBRANCH  61  73
ENDBRANCH  57  61
ENDBRANCH  56  58
BRANCH  56  77
ATOM     77  CB  ASP A   3      -9.670  22.235  29.819  0.00  0.00    +0.143 C 
BRANCH  77  78
ATOM     78  CG  ASP A   3     -10.001  20.915  29.116  0.00  0.00    +0.367 C 
ATOM     79  OD2 ASP A   3      -9.158  20.002  29.178  0.00  0.00    -0.246 OA
ATOM     80  OD1 ASP A   3     -11.055  20.798  28.477  0.00  0.00    -0.246 OA
ENDBRANCH  77  78
ENDBRANCH  56  77
ENDBRANCH  52  56
ENDBRANCH  51  54
BRANCH  51  81
ATOM     81  CB  THR A   4     -15.557  23.675  28.907  0.00  0.00    +0.137 C 
ATOM     82  CG2 THR A   4     -15.443  25.197  29.064  0.00  0.00    +0.034 C 
BRANCH  81  83
ATOM     83  OG1 THR A   4     -15.371  23.327  27.514  0.00  0.00    -0.382 OA
ATOM     84  HG1 THR A   4     -15.469  22.348  27.404  0.00  0.00    +0.210 HD
ENDBRANCH  81  83
ENDBRANCH  51  81
ENDBRANCH  47  51
ENDBRANCH  46  49
ENDBRANCH   1  46
TORSDOF 35
REMARK  Name = ../refined-set-2016/2pyn/2pyn_pocket.pdb
REMARK  230 active torsions:
REMARK  status: ('A' for Active; 'I' for Inactive)
REMARK    1  A    between atoms: _1  and  _3
REMARK    2  A    between atoms: _3  and  _4
REMARK    3  A    between atoms: _3  and  _6
REMARK    4  A    between atoms: _6  and  _7
REMARK    5  A    between atoms: _7  and  _8
REMARK    6  A    between atoms: _8  and  _9
REMARK    7  A    between atoms: _18  and  _20
REMARK    8  A    between atoms: _20  and  _21
REMARK    9  A    between atoms: _20  and  _23
REMARK   10  A    between atoms: _23  and  _24
REMARK   11  A    between atoms: _27  and  _29
REMARK   12  A    between atoms: _29  and  _30
REMARK   13  A    between atoms: _29  and  _32
REMARK   14  A    between atoms: _32  and  _33
REMARK   15  A    between atoms: _36  and  _38
REMARK   16  A    between atoms: _38  and  _39
REMARK   17  A    between atoms: _38  and  _41
REMARK   18  A    between atoms: _41  and  _42
REMARK   19  A    between atoms: _45  and  _47
REMARK   20  A    between atoms: _47  and  _48
REMARK   21  A    between atoms: _47  and  _50
REMARK   22  A    between atoms: _50  and  _51
REMARK   23  A    between atoms: _54  and  _56
REMARK   24  A    between atoms: _56  and  _57
REMARK   25  A    between atoms: _59  and  _61
REMARK   26  A    between atoms: _61  and  _62
REMARK   27  A    between atoms: _65  and  _67
REMARK   28  A    between atoms: _67  and  _68
REMARK   29  A    between atoms: _67  and  _70
REMARK   30  A    between atoms: _70  and  _71
REMARK   31  A    between atoms: _74  and  _76
REMARK   32  A    between atoms: _76  and  _77
REMARK   33  A    between atoms: _76  and  _79
REMARK   34  A    between atoms: _79  and  _80
REMARK   35  A    between atoms: _85  and  _87
REMARK   36  A    between atoms: _87  and  _88
REMARK   37  A    between atoms: _87  and  _90
REMARK   38  A    between atoms: _90  and  _91
REMARK   39  A    between atoms: _94  and  _96
REMARK   40  A    between atoms: _96  and  _97
REMARK   41  A    between atoms: _96  and  _99
REMARK   42  A    between atoms: _102  and  _104
REMARK   43  A    between atoms: _104  and  _105
REMARK   44  A    between atoms: _104  and  _107
REMARK   45  A    between atoms: _107  and  _108
REMARK   46  A    between atoms: _108  and  _109
REMARK   47  A    between atoms: _109  and  _110
REMARK   48  A    between atoms: _110  and  _111
REMARK   49  A    between atoms: _115  and  _117
REMARK   50  A    between atoms: _117  and  _118
REMARK   51  A    between atoms: _117  and  _120
REMARK   52  A    between atoms: _120  and  _121
REMARK   53  A    between atoms: _121  and  _122
REMARK   54  A    between atoms: _124  and  _126
REMARK   55  A    between atoms: _126  and  _127
REMARK   56  A    between atoms: _126  and  _129
REMARK   57  A    between atoms: _129  and  _130
REMARK   58  A    between atoms: _133  and  _135
REMARK   59  A    between atoms: _135  and  _136
REMARK   60  A    between atoms: _138  and  _140
REMARK   61  A    between atoms: _140  and  _141
REMARK   62  A    between atoms: _143  and  _145
REMARK   63  A    between atoms: _145  and  _146
REMARK   64  A    between atoms: _145  and  _148
REMARK   65  A    between atoms: _148  and  _149
REMARK   66  A    between atoms: _152  and  _154
REMARK   67  A    between atoms: _154  and  _155
REMARK   68  A    between atoms: _157  and  _159
REMARK   69  A    between atoms: _159  and  _160
REMARK   70  A    between atoms: _162  and  _164
REMARK   71  A    between atoms: _164  and  _165
REMARK   72  A    between atoms: _164  and  _167
REMARK   73  A    between atoms: _167  and  _168
REMARK   74  A    between atoms: _171  and  _173
REMARK   75  A    between atoms: _173  and  _174
REMARK   76  A    between atoms: _173  and  _176
REMARK   77  A    between atoms: _176  and  _177
REMARK   78  A    between atoms: _181  and  _182
REMARK   79  A    between atoms: _187  and  _189
REMARK   80  A    between atoms: _189  and  _190
REMARK   81  A    between atoms: _189  and  _192
REMARK   82  A    between atoms: _192  and  _193
REMARK   83  A    between atoms: _197  and  _198
REMARK   84  A    between atoms: _203  and  _205
REMARK   85  A    between atoms: _205  and  _206
REMARK   86  A    between atoms: _205  and  _208
REMARK   87  A    between atoms: _211  and  _213
REMARK   88  A    between atoms: _213  and  _214
REMARK   89  A    between atoms: _213  and  _216
REMARK   90  A    between atoms: _216  and  _217
REMARK   91  A    between atoms: _222  and  _224
REMARK   92  A    between atoms: _224  and  _225
REMARK   93  A    between atoms: _224  and  _227
REMARK   94  A    between atoms: _227  and  _228
REMARK   95  A    between atoms: _231  and  _233
REMARK   96  A    between atoms: _233  and  _234
REMARK   97  A    between atoms: _233  and  _236
REMARK   98  A    between atoms: _236  and  _237
REMARK   99  A    between atoms: _240  and  _242
REMARK  100  A    between atoms: _242  and  _243
REMARK  101  A    between atoms: _245  and  _247
REMARK  102  A    between atoms: _247  and  _248
REMARK  103  A    between atoms: _247  and  _250
REMARK  104  A    between atoms: _250  and  _251
REMARK  105  A    between atoms: _251  and  _252
REMARK  106  A    between atoms: _252  and  _253
REMARK  107  A    between atoms: _262  and  _264
REMARK  108  A    between atoms: _264  and  _265
REMARK  109  A    between atoms: _264  and  _267
REMARK  110  A    between atoms: _267  and  _268
REMARK  111  A    between atoms: _273  and  _275
REMARK  112  A    between atoms: _275  and  _276
REMARK  113  A    between atoms: _275  and  _278
REMARK  114  A    between atoms: _278  and  _279
REMARK  115  A    between atoms: _279  and  _280
REMARK  116  A    between atoms: _280  and  _281
REMARK  117  A    between atoms: _290  and  _292
REMARK  118  A    between atoms: _292  and  _293
REMARK  119  A    between atoms: _292  and  _295
REMARK  120  A    between atoms: _295  and  _296
REMARK  121  A    between atoms: _299  and  _301
REMARK  122  A    between atoms: _301  and  _302
REMARK  123  A    between atoms: _301  and  _304
REMARK  124  A    between atoms: _304  and  _305
REMARK  125  A    between atoms: _308  and  _310
REMARK  126  A    between atoms: _310  and  _311
REMARK  127  A    between atoms: _310  and  _313
REMARK  128  A    between atoms: _313  and  _314
REMARK  129  A    between atoms: _317  and  _319
REMARK  130  A    between atoms: _319  and  _320
REMARK  131  A    between atoms: _319  and  _322
REMARK  132  A    between atoms: _322  and  _323
REMARK  133  A    between atoms: _326  and  _328
REMARK  134  A    between atoms: _328  and  _329
REMARK  135  A    between atoms: _328  and  _331
REMARK  136  A    between atoms: _331  and  _332
REMARK  137  A    between atoms: _335  and  _337
REMARK  138  A    between atoms: _337  and  _338
REMARK  139  A    between atoms: _340  and  _342
REMARK  140  A    between atoms: _342  and  _343
REMARK  141  A    between atoms: _346  and  _348
REMARK  142  A    between atoms: _348  and  _349
REMARK  143  A    between atoms: _348  and  _351
REMARK  144  A    between atoms: _351  and  _352
REMARK  145  A    between atoms: _355  and  _357
REMARK  146  A    between atoms: _357  and  _358
REMARK  147  A    between atoms: _357  and  _360
REMARK  148  A    between atoms: _360  and  _361
REMARK  149  A    between atoms: _366  and  _368
REMARK  150  A    between atoms: _368  and  _369
REMARK  151  A    between atoms: _368  and  _371
REMARK  152  A    between atoms: _371  and  _372
REMARK  153  A    between atoms: _375  and  _377
REMARK  154  A    between atoms: _377  and  _378
REMARK  155  A    between atoms: _377  and  _380
REMARK  156  A    between atoms: _383  and  _385
REMARK  157  A    between atoms: _385  and  _386
REMARK  158  A    between atoms: _385  and  _388
REMARK  159  A    between atoms: _388  and  _389
REMARK  160  A    between atoms: _389  and  _390
REMARK  161  A    between atoms: _390  and  _391
REMARK  162  A    between atoms: _391  and  _392
REMARK  163  A    between atoms: _396  and  _398
REMARK  164  A    between atoms: _398  and  _399
REMARK  165  A    between atoms: _398  and  _401
REMARK  166  A    between atoms: _401  and  _402
REMARK  167  A    between atoms: _402  and  _403
REMARK  168  A    between atoms: _405  and  _407
REMARK  169  A    between atoms: _407  and  _408
REMARK  170  A    between atoms: _407  and  _410
REMARK  171  A    between atoms: _410  and  _411
REMARK  172  A    between atoms: _414  and  _416
REMARK  173  A    between atoms: _416  and  _417
REMARK  174  A    between atoms: _419  and  _421
REMARK  175  A    between atoms: _421  and  _422
REMARK  176  A    between atoms: _424  and  _426
REMARK  177  A    between atoms: _426  and  _427
REMARK  178  A    between atoms: _426  and  _429
REMARK  179  A    between atoms: _429  and  _430
REMARK  180  A    between atoms: _433  and  _435
REMARK  181  A    between atoms: _435  and  _436
REMARK  182  A    between atoms: _438  and  _440
REMARK  183  A    between atoms: _440  and  _441
REMARK  184  A    between atoms: _443  and  _445
REMARK  185  A    between atoms: _445  and  _446
REMARK  186  A    between atoms: _445  and  _448
REMARK  187  A    between atoms: _448  and  _449
REMARK  188  A    between atoms: _455  and  _457
REMARK  189  A    between atoms: _457  and  _458
REMARK  190  A    between atoms: _457  and  _460
REMARK  191  A    between atoms: _460  and  _461
REMARK  192  A    between atoms: _464  and  _466
REMARK  193  A    between atoms: _466  and  _467
REMARK  194  A    between atoms: _466  and  _469
REMARK  195  A    between atoms: _472  and  _474
REMARK  196  A    between atoms: _474  and  _475
REMARK  197  A    between atoms: _474  and  _477
REMARK  198  A    between atoms: _477  and  _478
REMARK  199  A    between atoms: _481  and  _483
REMARK  200  A    between atoms: _483  and  _484
REMARK  201  A    between atoms: _483  and  _486
REMARK  202  A    between atoms: _486  and  _487
REMARK  203  A    between atoms: _491  and  _492
REMARK  204  A    between atoms: _497  and  _499
REMARK  205  A    between atoms: _499  and  _500
REMARK  206  A    between atoms: _499  and  _502
REMARK  207  A    between atoms: _505  and  _507
REMARK  208  A    between atoms: _507  and  _508
REMARK  209  A    between atoms: _507  and  _510
REMARK  210  A    between atoms: _510  and  _511
REMARK  211  A    between atoms: _516  and  _518
REMARK  212  A    between atoms: _518  and  _519
REMARK  213  A    between atoms: _518  and  _521
REMARK  214  A    between atoms: _521  and  _522
REMARK  215  A    between atoms: _525  and  _527
REMARK  216  A    between atoms: _527  and  _528
REMARK  217  A    between atoms: _527  and  _530
REMARK  218  A    between atoms: _530  and  _531
REMARK  219  A    between atoms: _534  and  _536
REMARK  220  A    between atoms: _536  and  _537
REMARK  221  A    between atoms: _539  and  _541
REMARK  222  A    between atoms: _541  and  _542
REMARK  223  A    between atoms: _541  and  _544
REMARK  224  A    between atoms: _544  and  _545
REMARK  225  A    between atoms: _545  and  _546
REMARK  226  A    between atoms: _546  and  _547
REMARK  227  A    between atoms: _556  and  _558
REMARK  228  A    between atoms: _558  and  _559
REMARK  229  A    between atoms: _558  and  _561
REMARK  230  A    between atoms: _561  and  _562
REMARK                            x       y       z     vdW  Elec       q    Type
REMARK                         _______ _______ _______ _____ _____    ______ ____
ROOT
ATOM      1  C   GLY A   5      -8.799  10.013  28.300  0.00  0.00    +0.243 C 
ATOM      2  O   GLY A   5      -9.109   8.823  28.415  0.00  0.00    -0.273 OA
ATOM      3  N   ILE A   6      -8.752  10.633  27.133  0.00  0.00    -0.297 N 
ATOM      4  H   ILE A   6      -8.671  11.669  27.098  0.00  0.00    +0.150 HD
ENDROOT
BRANCH   3   5
ATOM      5  CA  ILE A   6      -8.813   9.874  25.912  0.00  0.00    +0.149 C 
BRANCH   5   6
ATOM      6  C   ILE A   6      -7.472   9.135  25.842  0.00  0.00    +0.241 C 
ATOM      7  O   ILE A   6      -6.426   9.713  26.147  0.00  0.00    -0.273 OA
ATOM      8  N   GLY A   7      -7.494   7.853  25.509  0.00  0.00    -0.295 N 
ATOM      9  H   GLY A   7      -8.400   7.378  25.320  0.00  0.00    +0.150 HD
BRANCH   8  10
ATOM     10  CA  GLY A   7      -6.233   7.103  25.407  0.00  0.00    +0.176 C 
BRANCH  10  11
ATOM     11  C   GLY A   7      -5.776   6.334  26.639  0.00  0.00    +0.243 C 
ATOM     12  N   GLY A   8      -6.275   6.703  27.811  0.00  0.00    -0.295 N 
ATOM     13  H   GLY A   8      -6.853   7.565  27.879  0.00  0.00    +0.150 HD
ATOM     14  O   GLY A   7      -4.966   5.413  26.533  0.00  0.00    -0.273 OA
BRANCH  12  15
ATOM     15  CA  GLY A   8      -6.018   5.908  29.000  0.00  0.00    +0.176 C 
BRANCH  15  16
ATOM     16  C   GLY A   8      -5.991   6.692  30.286  0.00  0.00    +0.243 C 
ATOM     17  N   PHE A   9      -5.259   6.157  31.265  0.00  0.00    -0.297 N 
ATOM     18  H   PHE A   9      -4.732   5.278  31.091  0.00  0.00    +0.150 HD
ATOM     19  O   GLY A   8      -6.599   7.764  30.381  0.00  0.00    -0.273 OA
BRANCH  17  20
ATOM     20  CA  PHE A   9      -5.190   6.789  32.573  0.00  0.00    +0.153 C 
BRANCH  20  21
ATOM     21  C   PHE A   9      -3.771   7.144  32.994  0.00  0.00    +0.241 C 
ATOM     22  N   ILE A  10      -3.675   8.153  33.860  0.00  0.00    -0.298 N 
ATOM     23  H   ILE A  10      -4.533   8.687  34.106  0.00  0.00    +0.150 HD
ATOM     24  O   PHE A   9      -2.795   6.553  32.530  0.00  0.00    -0.273 OA
BRANCH  22  25
ATOM     25  CA  ILE A  10      -2.406   8.534  34.475  0.00  0.00    +0.137 C 
BRANCH  25  26
ATOM     26  C   ILE A  10      -2.565   8.589  35.992  0.00  0.00    +0.227 C 
ATOM     27  O   ILE A  10      -3.658   8.845  36.498  0.00  0.00    -0.286 OA
ENDBRANCH  25  26
BRANCH  25  28
ATOM     28  CB  ILE A  10      -1.852   9.880  33.940  0.00  0.00    +0.026 C 
ATOM     29  CG2 ILE A  10      -1.500   9.767  32.455  0.00  0.00    +0.002 C 
BRANCH  28  30
ATOM     30  CG1 ILE A  10      -2.835  11.028  34.194  0.00  0.00    +0.002 C 
ATOM     31  CD1 ILE A  10      -2.234  12.408  34.043  0.00  0.00    +0.000 C 
ENDBRANCH  28  30
ENDBRANCH  25  28
ENDBRANCH  22  25
ENDBRANCH  20  21
BRANCH  20  32
ATOM     32  CB  PHE A   9      -5.865   5.927  33.639  0.00  0.00    +0.055 C 
BRANCH  32  33
ATOM     33  CG  PHE A   9      -5.133   4.661  33.947  0.00  0.00    -0.020 A 
ATOM     34  CD2 PHE A   9      -4.131   4.636  34.912  0.00  0.00    -0.004 A 
ATOM     35  CE2 PHE A   9      -3.449   3.455  35.200  0.00  0.00    -0.000 A 
ATOM     36  CZ  PHE A   9      -3.777   2.288  34.526  0.00  0.00    -0.000 A 
ATOM     37  CE1 PHE A   9      -4.776   2.302  33.566  0.00  0.00    -0.000 A 
ATOM     38  CD1 PHE A   9      -5.448   3.490  33.279  0.00  0.00    -0.004 A 
ENDBRANCH  32  33
ENDBRANCH  20  32
ENDBRANCH  17  20
ENDBRANCH  15  16
ENDBRANCH  12  15
ENDBRANCH  10  11
ENDBRANCH   8  10
ENDBRANCH   5   6
BRANCH   5  39
ATOM     39  CB  ILE A   6      -9.047  10.798  24.706  0.00  0.00    +0.027 C 
ATOM     40  CG2 ILE A   6      -7.785  10.958  23.877  0.00  0.00    +0.002 C 
BRANCH  39  41
ATOM     41  CG1 ILE A   6     -10.209  10.276  23.858  0.00  0.00    +0.002 C 
ATOM     42  CD1 ILE A   6     -10.766  11.284  22.877  0.00  0.00    +0.000 C 
ENDBRANCH  39  41
ENDBRANCH   5  39
ENDBRANCH   3   5
BRANCH   1  43
ATOM     43  CA  GLY A   5      -8.450  10.845  29.501  0.00  0.00    +0.176 C 
BRANCH  43  46
ATOM     44  C   GLY A   4      -8.963  10.002  31.703  0.00  0.00    +0.243 C 
ATOM     45  O   GLY A   4      -9.791  10.893  31.913  0.00  0.00    -0.273 OA
ATOM     46  N   GLY A   5      -8.200   9.961  30.619  0.00  0.00    -0.295 N 
ATOM     47  H   GLY A   5      -7.412   9.285  30.572  0.00  0.00    +0.150 HD
BRANCH  44  48
ATOM     48  CA  GLY A   4      -8.739   8.892  32.703  0.00  0.00    +0.176 C 
BRANCH  48  51
ATOM     49  C   ILE A   3      -7.478   9.566  34.652  0.00  0.00    +0.241 C 
ATOM     50  O   ILE A   3      -6.402   9.331  34.098  0.00  0.00    -0.273 OA
ATOM     51  N   GLY A   4      -8.650   9.397  34.056  0.00  0.00    -0.295 N 
ATOM     52  H   GLY A   4      -9.522   9.632  34.571  0.00  0.00    +0.150 HD
BRANCH  49  53
ATOM     53  CA  ILE A   3      -7.536  10.074  36.087  0.00  0.00    +0.149 C 
BRANCH  53  56
ATOM     54  C   MET A   2      -6.994   8.784  38.072  0.00  0.00    +0.241 C 
ATOM     55  O   MET A   2      -8.148   8.867  38.493  0.00  0.00    -0.273 OA
ATOM     56  N   ILE A   3      -6.596   9.354  36.941  0.00  0.00    -0.297 N 
ATOM     57  H   ILE A   3      -5.597   9.286  36.659  0.00  0.00    +0.150 HD
BRANCH  54  58
ATOM     58  CA  MET A   2      -5.937   8.029  38.866  0.00  0.00    +0.149 C 
BRANCH  58  61
ATOM     59  C   LYS A   1      -5.177   8.982  40.979  0.00  0.00    +0.238 C 
ATOM     60  O   LYS A   1      -4.054   9.229  40.537  0.00  0.00    -0.274 OA
ATOM     61  N   MET A   2      -6.094   8.309  40.289  0.00  0.00    -0.297 N 
ATOM     62  H   MET A   2      -6.948   7.973  40.778  0.00  0.00    +0.150 HD
BRANCH  59  63
ATOM     63  CA  LYS A   1      -5.566   9.411  42.389  0.00  0.00    +0.145 C 
BRANCH  63  64
ATOM     64  N   LYS A   1      -4.349   9.458  43.184  0.00  0.00    -0.238 NA
ATOM     65  H   LYS A   1      -3.454   9.696  42.710  0.00  0.00    +0.142 HD
ENDBRANCH  63  64
BRANCH  63  66
ATOM     66  CB  LYS A   1      -6.227  10.799  42.355  0.00  0.00    +0.026 C 
BRANCH  66  67
ATOM     67  CG  LYS A   1      -7.703  10.823  41.942  0.00  0.00    -0.000 C 
BRANCH  67  68
ATOM     68  CD  LYS A   1      -8.154  12.235  41.516  0.00  0.00    -0.024 C 
BRANCH  68  69
ATOM     69  CE  LYS A   1      -9.572  12.251  40.924  0.00  0.00    -0.086 C 
BRANCH  69  70
ATOM     70  NZ  LYS A   1     -10.647  11.902  41.916  0.00  0.00    +0.380 N 
ATOM     71  HZ1 LYS A   1     -10.630  12.587  42.699  0.00  0.00    -0.089 HD
ATOM     72  HZ2 LYS A   1     -10.477  10.945  42.287  0.00  0.00    -0.089 HD
ATOM     73  HZ3 LYS A   1     -11.574  11.933  41.446  0.00  0.00    -0.089 HD
ENDBRANCH  69  70
ENDBRANCH  68  69
ENDBRANCH  67  68
ENDBRANCH  66  67
ENDBRANCH  63  66
ENDBRANCH  59  63
ENDBRANCH  58  61
BRANCH  58  74
ATOM     74  CB  MET A   2      -6.024   6.527  38.585  0.00  0.00    +0.041 C 
BRANCH  74  75
ATOM     75  CG  MET A   2      -4.768   5.771  38.950  0.00  0.00    +0.060 C 
BRANCH  75  76
ATOM     76  SD  MET A   2      -4.869   4.063  38.433  0.00  0.00    -0.139 S 
ATOM     77  CE  MET A   2      -3.714   3.295  39.568  0.00  0.00    +0.069 C 
ENDBRANCH  75  76
ENDBRANCH  74  75
ENDBRANCH  58  74
ENDBRANCH  54  58
ENDBRANCH  53  56
BRANCH  53  78
ATOM     78  CB  ILE A   3      -7.350  11.622  36.153  0.00  0.00    +0.027 C 
ATOM     79  CG2 ILE A   3      -7.722  12.146  37.547  0.00  0.00    +0.002 C 
BRANCH  78  80
ATOM     80  CG1 ILE A   3      -5.926  12.021  35.774  0.00  0.00    +0.002 C 
ATOM     81  CD1 ILE A   3      -5.728  13.529  35.589  0.00  0.00    +0.000 C 
ENDBRANCH  78  80
ENDBRANCH  53  78
ENDBRANCH  49  53
ENDBRANCH  48  51
ENDBRANCH  44  48
ENDBRANCH  43  46
ENDBRANCH   1  43
TORSDOF 36
REMARK  Name = ../refined-set-2016/2pyn/2pyn_pocket.pdb
REMARK  230 active torsions:
REMARK  status: ('A' for Active; 'I' for Inactive)
REMARK    1  A    between atoms: _1  and  _3
REMARK    2  A    between atoms: _3  and  _4
REMARK    3  A    between atoms: _3  and  _6
REMARK    4  A    between atoms: _6  and  _7
REMARK    5  A    between atoms: _7  and  _8
REMARK    6  A    between atoms: _8  and  _9
REMARK    7  A    between atoms: _18  and  _20
REMARK    8  A    between atoms: _20  and  _21
REMARK    9  A    between atoms: _20  and  _23
REMARK   10  A    between atoms: _23  and  _24
REMARK   11  A    between atoms: _27  and  _29
REMARK   12  A    between atoms: _29  and  _30
REMARK   13  A    between atoms: _29  and  _32
REMARK   14  A    between atoms: _32  and  _33
REMARK   15  A    between atoms: _36  and  _38
REMARK   16  A    between atoms: _38  and  _39
REMARK   17  A    between atoms: _38  and  _41
REMARK   18  A    between atoms: _41  and  _42
REMARK   19  A    between atoms: _45  and  _47
REMARK   20  A    between atoms: _47  and  _48
REMARK   21  A    between atoms: _47  and  _50
REMARK   22  A    between atoms: _50  and  _51
REMARK   23  A    between atoms: _54  and  _56
REMARK   24  A    between atoms: _56  and  _57
REMARK   25  A    between atoms: _59  and  _61
REMARK   26  A    between atoms: _61  and  _62
REMARK   27  A    between atoms: _65  and  _67
REMARK   28  A    between atoms: _67  and  _68
REMARK   29  A    between atoms: _67  and  _70
REMARK   30  A    between atoms: _70  and  _71
REMARK   31  A    between atoms: _74  and  _76
REMARK   32  A    between atoms: _76  and  _77
REMARK   33  A    between atoms: _76  and  _79
REMARK   34  A    between atoms: _79  and  _80
REMARK   35  A    between atoms: _85  and  _87
REMARK   36  A    between atoms: _87  and  _88
REMARK   37  A    between atoms: _87  and  _90
REMARK   38  A    between atoms: _90  and  _91
REMARK   39  A    between atoms: _94  and  _96
REMARK   40  A    between atoms: _96  and  _97
REMARK   41  A    between atoms: _96  and  _99
REMARK   42  A    between atoms: _102  and  _104
REMARK   43  A    between atoms: _104  and  _105
REMARK   44  A    between atoms: _104  and  _107
REMARK   45  A    between atoms: _107  and  _108
REMARK   46  A    between atoms: _108  and  _109
REMARK   47  A    between atoms: _109  and  _110
REMARK   48  A    between atoms: _110  and  _111
REMARK   49  A    between atoms: _115  and  _117
REMARK   50  A    between atoms: _117  and  _118
REMARK   51  A    between atoms: _117  and  _120
REMARK   52  A    between atoms: _120  and  _121
REMARK   53  A    between atoms: _121  and  _122
REMARK   54  A    between atoms: _124  and  _126
REMARK   55  A    between atoms: _126  and  _127
REMARK   56  A    between atoms: _126  and  _129
REMARK   57  A    between atoms: _129  and  _130
REMARK   58  A    between atoms: _133  and  _135
REMARK   59  A    between atoms: _135  and  _136
REMARK   60  A    between atoms: _138  and  _140
REMARK   61  A    between atoms: _140  and  _141
REMARK   62  A    between atoms: _143  and  _145
REMARK   63  A    between atoms: _145  and  _146
REMARK   64  A    between atoms: _145  and  _148
REMARK   65  A    between atoms: _148  and  _149
REMARK   66  A    between atoms: _152  and  _154
REMARK   67  A    between atoms: _154  and  _155
REMARK   68  A    between atoms: _157  and  _159
REMARK   69  A    between atoms: _159  and  _160
REMARK   70  A    between atoms: _162  and  _164
REMARK   71  A    between atoms: _164  and  _165
REMARK   72  A    between atoms: _164  and  _167
REMARK   73  A    between atoms: _167  and  _168
REMARK   74  A    between atoms: _171  and  _173
REMARK   75  A    between atoms: _173  and  _174
REMARK   76  A    between atoms: _173  and  _176
REMARK   77  A    between atoms: _176  and  _177
REMARK   78  A    between atoms: _181  and  _182
REMARK   79  A    between atoms: _187  and  _189
REMARK   80  A    between atoms: _189  and  _190
REMARK   81  A    between atoms: _189  and  _192
REMARK   82  A    between atoms: _192  and  _193
REMARK   83  A    between atoms: _197  and  _198
REMARK   84  A    between atoms: _203  and  _205
REMARK   85  A    between atoms: _205  and  _206
REMARK   86  A    between atoms: _205  and  _208
REMARK   87  A    between atoms: _211  and  _213
REMARK   88  A    between atoms: _213  and  _214
REMARK   89  A    between atoms: _213  and  _216
REMARK   90  A    between atoms: _216  and  _217
REMARK   91  A    between atoms: _222  and  _224
REMARK   92  A    between atoms: _224  and  _225
REMARK   93  A    between atoms: _224  and  _227
REMARK   94  A    between atoms: _227  and  _228
REMARK   95  A    between atoms: _231  and  _233
REMARK   96  A    between atoms: _233  and  _234
REMARK   97  A    between atoms: _233  and  _236
REMARK   98  A    between atoms: _236  and  _237
REMARK   99  A    between atoms: _240  and  _242
REMARK  100  A    between atoms: _242  and  _243
REMARK  101  A    between atoms: _245  and  _247
REMARK  102  A    between atoms: _247  and  _248
REMARK  103  A    between atoms: _247  and  _250
REMARK  104  A    between atoms: _250  and  _251
REMARK  105  A    between atoms: _251  and  _252
REMARK  106  A    between atoms: _252  and  _253
REMARK  107  A    between atoms: _262  and  _264
REMARK  108  A    between atoms: _264  and  _265
REMARK  109  A    between atoms: _264  and  _267
REMARK  110  A    between atoms: _267  and  _268
REMARK  111  A    between atoms: _273  and  _275
REMARK  112  A    between atoms: _275  and  _276
REMARK  113  A    between atoms: _275  and  _278
REMARK  114  A    between atoms: _278  and  _279
REMARK  115  A    between atoms: _279  and  _280
REMARK  116  A    between atoms: _280  and  _281
REMARK  117  A    between atoms: _290  and  _292
REMARK  118  A    between atoms: _292  and  _293
REMARK  119  A    between atoms: _292  and  _295
REMARK  120  A    between atoms: _295  and  _296
REMARK  121  A    between atoms: _299  and  _301
REMARK  122  A    between atoms: _301  and  _302
REMARK  123  A    between atoms: _301  and  _304
REMARK  124  A    between atoms: _304  and  _305
REMARK  125  A    between atoms: _308  and  _310
REMARK  126  A    between atoms: _310  and  _311
REMARK  127  A    between atoms: _310  and  _313
REMARK  128  A    between atoms: _313  and  _314
REMARK  129  A    between atoms: _317  and  _319
REMARK  130  A    between atoms: _319  and  _320
REMARK  131  A    between atoms: _319  and  _322
REMARK  132  A    between atoms: _322  and  _323
REMARK  133  A    between atoms: _326  and  _328
REMARK  134  A    between atoms: _328  and  _329
REMARK  135  A    between atoms: _328  and  _331
REMARK  136  A    between atoms: _331  and  _332
REMARK  137  A    between atoms: _335  and  _337
REMARK  138  A    between atoms: _337  and  _338
REMARK  139  A    between atoms: _340  and  _342
REMARK  140  A    between atoms: _342  and  _343
REMARK  141  A    between atoms: _346  and  _348
REMARK  142  A    between atoms: _348  and  _349
REMARK  143  A    between atoms: _348  and  _351
REMARK  144  A    between atoms: _351  and  _352
REMARK  145  A    between atoms: _355  and  _357
REMARK  146  A    between atoms: _357  and  _358
REMARK  147  A    between atoms: _357  and  _360
REMARK  148  A    between atoms: _360  and  _361
REMARK  149  A    between atoms: _366  and  _368
REMARK  150  A    between atoms: _368  and  _369
REMARK  151  A    between atoms: _368  and  _371
REMARK  152  A    between atoms: _371  and  _372
REMARK  153  A    between atoms: _375  and  _377
REMARK  154  A    between atoms: _377  and  _378
REMARK  155  A    between atoms: _377  and  _380
REMARK  156  A    between atoms: _383  and  _385
REMARK  157  A    between atoms: _385  and  _386
REMARK  158  A    between atoms: _385  and  _388
REMARK  159  A    between atoms: _388  and  _389
REMARK  160  A    between atoms: _389  and  _390
REMARK  161  A    between atoms: _390  and  _391
REMARK  162  A    between atoms: _391  and  _392
REMARK  163  A    between atoms: _396  and  _398
REMARK  164  A    between atoms: _398  and  _399
REMARK  165  A    between atoms: _398  and  _401
REMARK  166  A    between atoms: _401  and  _402
REMARK  167  A    between atoms: _402  and  _403
REMARK  168  A    between atoms: _405  and  _407
REMARK  169  A    between atoms: _407  and  _408
REMARK  170  A    between atoms: _407  and  _410
REMARK  171  A    between atoms: _410  and  _411
REMARK  172  A    between atoms: _414  and  _416
REMARK  173  A    between atoms: _416  and  _417
REMARK  174  A    between atoms: _419  and  _421
REMARK  175  A    between atoms: _421  and  _422
REMARK  176  A    between atoms: _424  and  _426
REMARK  177  A    between atoms: _426  and  _427
REMARK  178  A    between atoms: _426  and  _429
REMARK  179  A    between atoms: _429  and  _430
REMARK  180  A    between atoms: _433  and  _435
REMARK  181  A    between atoms: _435  and  _436
REMARK  182  A    between atoms: _438  and  _440
REMARK  183  A    between atoms: _440  and  _441
REMARK  184  A    between atoms: _443  and  _445
REMARK  185  A    between atoms: _445  and  _446
REMARK  186  A    between atoms: _445  and  _448
REMARK  187  A    between atoms: _448  and  _449
REMARK  188  A    between atoms: _455  and  _457
REMARK  189  A    between atoms: _457  and  _458
REMARK  190  A    between atoms: _457  and  _460
REMARK  191  A    between atoms: _460  and  _461
REMARK  192  A    between atoms: _464  and  _466
REMARK  193  A    between atoms: _466  and  _467
REMARK  194  A    between atoms: _466  and  _469
REMARK  195  A    between atoms: _472  and  _474
REMARK  196  A    between atoms: _474  and  _475
REMARK  197  A    between atoms: _474  and  _477
REMARK  198  A    between atoms: _477  and  _478
REMARK  199  A    between atoms: _481  and  _483
REMARK  200  A    between atoms: _483  and  _484
REMARK  201  A    between atoms: _483  and  _486
REMARK  202  A    between atoms: _486  and  _487
REMARK  203  A    between atoms: _491  and  _492
REMARK  204  A    between atoms: _497  and  _499
REMARK  205  A    between atoms: _499  and  _500
REMARK  206  A    between atoms: _499  and  _502
REMARK  207  A    between atoms: _505  and  _507
REMARK  208  A    between atoms: _507  and  _508
REMARK  209  A    between atoms: _507  and  _510
REMARK  210  A    between atoms: _510  and  _511
REMARK  211  A    between atoms: _516  and  _518
REMARK  212  A    between atoms: _518  and  _519
REMARK  213  A    between atoms: _518  and  _521
REMARK  214  A    between atoms: _521  and  _522
REMARK  215  A    between atoms: _525  and  _527
REMARK  216  A    between atoms: _527  and  _528
REMARK  217  A    between atoms: _527  and  _530
REMARK  218  A    between atoms: _530  and  _531
REMARK  219  A    between atoms: _534  and  _536
REMARK  220  A    between atoms: _536  and  _537
REMARK  221  A    between atoms: _539  and  _541
REMARK  222  A    between atoms: _541  and  _542
REMARK  223  A    between atoms: _541  and  _544
REMARK  224  A    between atoms: _544  and  _545
REMARK  225  A    between atoms: _545  and  _546
REMARK  226  A    between atoms: _546  and  _547
REMARK  227  A    between atoms: _556  and  _558
REMARK  228  A    between atoms: _558  and  _559
REMARK  229  A    between atoms: _558  and  _561
REMARK  230  A    between atoms: _561  and  _562
REMARK                            x       y       z     vdW  Elec       q    Type
REMARK                         _______ _______ _______ _____ _____    ______ ____
ROOT
ATOM      1  CA  VAL A   1      -1.583  11.871  39.857  0.00  0.00    +0.133 C 
ENDROOT
BRANCH   1   2
ATOM      2  CB  VAL A   1      -2.668  12.850  39.308  0.00  0.00    +0.023 C 
ATOM      3  CG2 VAL A   1      -4.070  12.472  39.790  0.00  0.00    +0.002 C 
ATOM      4  CG1 VAL A   1      -2.615  12.947  37.784  0.00  0.00    +0.002 C 
ENDBRANCH   1   2
BRANCH   1   5
ATOM      5  N   VAL A   1      -1.805  10.478  39.450  0.00  0.00    -0.239 NA
ATOM      6  H   VAL A   1      -2.548   9.930  39.928  0.00  0.00    +0.142 HD
ENDBRANCH   1   5
BRANCH   1   7
ATOM      7  C   VAL A   1      -1.536  11.988  41.379  0.00  0.00    +0.224 C 
ATOM      8  O   VAL A   1      -1.943  11.059  42.094  0.00  0.00    -0.287 OA
ENDBRANCH   1   7
TORSDOF 3
REMARK  Name = ../refined-set-2016/2pyn/2pyn_pocket.pdb
REMARK  230 active torsions:
REMARK  status: ('A' for Active; 'I' for Inactive)
REMARK    1  A    between atoms: _1  and  _3
REMARK    2  A    between atoms: _3  and  _4
REMARK    3  A    between atoms: _3  and  _6
REMARK    4  A    between atoms: _6  and  _7
REMARK    5  A    between atoms: _7  and  _8
REMARK    6  A    between atoms: _8  and  _9
REMARK    7  A    between atoms: _18  and  _20
REMARK    8  A    between atoms: _20  and  _21
REMARK    9  A    between atoms: _20  and  _23
REMARK   10  A    between atoms: _23  and  _24
REMARK   11  A    between atoms: _27  and  _29
REMARK   12  A    between atoms: _29  and  _30
REMARK   13  A    between atoms: _29  and  _32
REMARK   14  A    between atoms: _32  and  _33
REMARK   15  A    between atoms: _36  and  _38
REMARK   16  A    between atoms: _38  and  _39
REMARK   17  A    between atoms: _38  and  _41
REMARK   18  A    between atoms: _41  and  _42
REMARK   19  A    between atoms: _45  and  _47
REMARK   20  A    between atoms: _47  and  _48
REMARK   21  A    between atoms: _47  and  _50
REMARK   22  A    between atoms: _50  and  _51
REMARK   23  A    between atoms: _54  and  _56
REMARK   24  A    between atoms: _56  and  _57
REMARK   25  A    between atoms: _59  and  _61
REMARK   26  A    between atoms: _61  and  _62
REMARK   27  A    between atoms: _65  and  _67
REMARK   28  A    between atoms: _67  and  _68
REMARK   29  A    between atoms: _67  and  _70
REMARK   30  A    between atoms: _70  and  _71
REMARK   31  A    between atoms: _74  and  _76
REMARK   32  A    between atoms: _76  and  _77
REMARK   33  A    between atoms: _76  and  _79
REMARK   34  A    between atoms: _79  and  _80
REMARK   35  A    between atoms: _85  and  _87
REMARK   36  A    between atoms: _87  and  _88
REMARK   37  A    between atoms: _87  and  _90
REMARK   38  A    between atoms: _90  and  _91
REMARK   39  A    between atoms: _94  and  _96
REMARK   40  A    between atoms: _96  and  _97
REMARK   41  A    between atoms: _96  and  _99
REMARK   42  A    between atoms: _102  and  _104
REMARK   43  A    between atoms: _104  and  _105
REMARK   44  A    between atoms: _104  and  _107
REMARK   45  A    between atoms: _107  and  _108
REMARK   46  A    between atoms: _108  and  _109
REMARK   47  A    between atoms: _109  and  _110
REMARK   48  A    between atoms: _110  and  _111
REMARK   49  A    between atoms: _115  and  _117
REMARK   50  A    between atoms: _117  and  _118
REMARK   51  A    between atoms: _117  and  _120
REMARK   52  A    between atoms: _120  and  _121
REMARK   53  A    between atoms: _121  and  _122
REMARK   54  A    between atoms: _124  and  _126
REMARK   55  A    between atoms: _126  and  _127
REMARK   56  A    between atoms: _126  and  _129
REMARK   57  A    between atoms: _129  and  _130
REMARK   58  A    between atoms: _133  and  _135
REMARK   59  A    between atoms: _135  and  _136
REMARK   60  A    between atoms: _138  and  _140
REMARK   61  A    between atoms: _140  and  _141
REMARK   62  A    between atoms: _143  and  _145
REMARK   63  A    between atoms: _145  and  _146
REMARK   64  A    between atoms: _145  and  _148
REMARK   65  A    between atoms: _148  and  _149
REMARK   66  A    between atoms: _152  and  _154
REMARK   67  A    between atoms: _154  and  _155
REMARK   68  A    between atoms: _157  and  _159
REMARK   69  A    between atoms: _159  and  _160
REMARK   70  A    between atoms: _162  and  _164
REMARK   71  A    between atoms: _164  and  _165
REMARK   72  A    between atoms: _164  and  _167
REMARK   73  A    between atoms: _167  and  _168
REMARK   74  A    between atoms: _171  and  _173
REMARK   75  A    between atoms: _173  and  _174
REMARK   76  A    between atoms: _173  and  _176
REMARK   77  A    between atoms: _176  and  _177
REMARK   78  A    between atoms: _181  and  _182
REMARK   79  A    between atoms: _187  and  _189
REMARK   80  A    between atoms: _189  and  _190
REMARK   81  A    between atoms: _189  and  _192
REMARK   82  A    between atoms: _192  and  _193
REMARK   83  A    between atoms: _197  and  _198
REMARK   84  A    between atoms: _203  and  _205
REMARK   85  A    between atoms: _205  and  _206
REMARK   86  A    between atoms: _205  and  _208
REMARK   87  A    between atoms: _211  and  _213
REMARK   88  A    between atoms: _213  and  _214
REMARK   89  A    between atoms: _213  and  _216
REMARK   90  A    between atoms: _216  and  _217
REMARK   91  A    between atoms: _222  and  _224
REMARK   92  A    between atoms: _224  and  _225
REMARK   93  A    between atoms: _224  and  _227
REMARK   94  A    between atoms: _227  and  _228
REMARK   95  A    between atoms: _231  and  _233
REMARK   96  A    between atoms: _233  and  _234
REMARK   97  A    between atoms: _233  and  _236
REMARK   98  A    between atoms: _236  and  _237
REMARK   99  A    between atoms: _240  and  _242
REMARK  100  A    between atoms: _242  and  _243
REMARK  101  A    between atoms: _245  and  _247
REMARK  102  A    between atoms: _247  and  _248
REMARK  103  A    between atoms: _247  and  _250
REMARK  104  A    between atoms: _250  and  _251
REMARK  105  A    between atoms: _251  and  _252
REMARK  106  A    between atoms: _252  and  _253
REMARK  107  A    between atoms: _262  and  _264
REMARK  108  A    between atoms: _264  and  _265
REMARK  109  A    between atoms: _264  and  _267
REMARK  110  A    between atoms: _267  and  _268
REMARK  111  A    between atoms: _273  and  _275
REMARK  112  A    between atoms: _275  and  _276
REMARK  113  A    between atoms: _275  and  _278
REMARK  114  A    between atoms: _278  and  _279
REMARK  115  A    between atoms: _279  and  _280
REMARK  116  A    between atoms: _280  and  _281
REMARK  117  A    between atoms: _290  and  _292
REMARK  118  A    between atoms: _292  and  _293
REMARK  119  A    between atoms: _292  and  _295
REMARK  120  A    between atoms: _295  and  _296
REMARK  121  A    between atoms: _299  and  _301
REMARK  122  A    between atoms: _301  and  _302
REMARK  123  A    between atoms: _301  and  _304
REMARK  124  A    between atoms: _304  and  _305
REMARK  125  A    between atoms: _308  and  _310
REMARK  126  A    between atoms: _310  and  _311
REMARK  127  A    between atoms: _310  and  _313
REMARK  128  A    between atoms: _313  and  _314
REMARK  129  A    between atoms: _317  and  _319
REMARK  130  A    between atoms: _319  and  _320
REMARK  131  A    between atoms: _319  and  _322
REMARK  132  A    between atoms: _322  and  _323
REMARK  133  A    between atoms: _326  and  _328
REMARK  134  A    between atoms: _328  and  _329
REMARK  135  A    between atoms: _328  and  _331
REMARK  136  A    between atoms: _331  and  _332
REMARK  137  A    between atoms: _335  and  _337
REMARK  138  A    between atoms: _337  and  _338
REMARK  139  A    between atoms: _340  and  _342
REMARK  140  A    between atoms: _342  and  _343
REMARK  141  A    between atoms: _346  and  _348
REMARK  142  A    between atoms: _348  and  _349
REMARK  143  A    between atoms: _348  and  _351
REMARK  144  A    between atoms: _351  and  _352
REMARK  145  A    between atoms: _355  and  _357
REMARK  146  A    between atoms: _357  and  _358
REMARK  147  A    between atoms: _357  and  _360
REMARK  148  A    between atoms: _360  and  _361
REMARK  149  A    between atoms: _366  and  _368
REMARK  150  A    between atoms: _368  and  _369
REMARK  151  A    between atoms: _368  and  _371
REMARK  152  A    between atoms: _371  and  _372
REMARK  153  A    between atoms: _375  and  _377
REMARK  154  A    between atoms: _377  and  _378
REMARK  155  A    between atoms: _377  and  _380
REMARK  156  A    between atoms: _383  and  _385
REMARK  157  A    between atoms: _385  and  _386
REMARK  158  A    between atoms: _385  and  _388
REMARK  159  A    between atoms: _388  and  _389
REMARK  160  A    between atoms: _389  and  _390
REMARK  161  A    between atoms: _390  and  _391
REMARK  162  A    between atoms: _391  and  _392
REMARK  163  A    between atoms: _396  and  _398
REMARK  164  A    between atoms: _398  and  _399
REMARK  165  A    between atoms: _398  and  _401
REMARK  166  A    between atoms: _401  and  _402
REMARK  167  A    between atoms: _402  and  _403
REMARK  168  A    between atoms: _405  and  _407
REMARK  169  A    between atoms: _407  and  _408
REMARK  170  A    between atoms: _407  and  _410
REMARK  171  A    between atoms: _410  and  _411
REMARK  172  A    between atoms: _414  and  _416
REMARK  173  A    between atoms: _416  and  _417
REMARK  174  A    between atoms: _419  and  _421
REMARK  175  A    between atoms: _421  and  _422
REMARK  176  A    between atoms: _424  and  _426
REMARK  177  A    between atoms: _426  and  _427
REMARK  178  A    between atoms: _426  and  _429
REMARK  179  A    between atoms: _429  and  _430
REMARK  180  A    between atoms: _433  and  _435
REMARK  181  A    between atoms: _435  and  _436
REMARK  182  A    between atoms: _438  and  _440
REMARK  183  A    between atoms: _440  and  _441
REMARK  184  A    between atoms: _443  and  _445
REMARK  185  A    between atoms: _445  and  _446
REMARK  186  A    between atoms: _445  and  _448
REMARK  187  A    between atoms: _448  and  _449
REMARK  188  A    between atoms: _455  and  _457
REMARK  189  A    between atoms: _457  and  _458
REMARK  190  A    between atoms: _457  and  _460
REMARK  191  A    between atoms: _460  and  _461
REMARK  192  A    between atoms: _464  and  _466
REMARK  193  A    between atoms: _466  and  _467
REMARK  194  A    between atoms: _466  and  _469
REMARK  195  A    between atoms: _472  and  _474
REMARK  196  A    between atoms: _474  and  _475
REMARK  197  A    between atoms: _474  and  _477
REMARK  198  A    between atoms: _477  and  _478
REMARK  199  A    between atoms: _481  and  _483
REMARK  200  A    between atoms: _483  and  _484
REMARK  201  A    between atoms: _483  and  _486
REMARK  202  A    between atoms: _486  and  _487
REMARK  203  A    between atoms: _491  and  _492
REMARK  204  A    between atoms: _497  and  _499
REMARK  205  A    between atoms: _499  and  _500
REMARK  206  A    between atoms: _499  and  _502
REMARK  207  A    between atoms: _505  and  _507
REMARK  208  A    between atoms: _507  and  _508
REMARK  209  A    between atoms: _507  and  _510
REMARK  210  A    between atoms: _510  and  _511
REMARK  211  A    between atoms: _516  and  _518
REMARK  212  A    between atoms: _518  and  _519
REMARK  213  A    between atoms: _518  and  _521
REMARK  214  A    between atoms: _521  and  _522
REMARK  215  A    between atoms: _525  and  _527
REMARK  216  A    between atoms: _527  and  _528
REMARK  217  A    between atoms: _527  and  _530
REMARK  218  A    between atoms: _530  and  _531
REMARK  219  A    between atoms: _534  and  _536
REMARK  220  A    between atoms: _536  and  _537
REMARK  221  A    between atoms: _539  and  _541
REMARK  222  A    between atoms: _541  and  _542
REMARK  223  A    between atoms: _541  and  _544
REMARK  224  A    between atoms: _544  and  _545
REMARK  225  A    between atoms: _545  and  _546
REMARK  226  A    between atoms: _546  and  _547
REMARK  227  A    between atoms: _556  and  _558
REMARK  228  A    between atoms: _558  and  _559
REMARK  229  A    between atoms: _558  and  _561
REMARK  230  A    between atoms: _561  and  _562
REMARK                            x       y       z     vdW  Elec       q    Type
REMARK                         _______ _______ _______ _____ _____    ______ ____
ROOT
ATOM      1  CA  LEU A   1      -3.929  17.240  40.498  0.00  0.00    +0.133 C 
ENDROOT
BRANCH   1   2
ATOM      2  N   LEU A   1      -4.540  18.534  40.708  0.00  0.00    -0.239 NA
ATOM      3  H   LEU A   1      -5.007  19.001  39.904  0.00  0.00    +0.142 HD
ENDBRANCH   1   2
BRANCH   1   4
ATOM      4  C   LEU A   1      -2.596  17.475  39.801  0.00  0.00    +0.224 C 
ATOM      5  O   LEU A   1      -2.508  18.292  38.881  0.00  0.00    -0.287 OA
ENDBRANCH   1   4
BRANCH   1   6
ATOM      6  CB  LEU A   1      -4.846  16.373  39.626  0.00  0.00    +0.025 C 
BRANCH   6   7
ATOM      7  CG  LEU A   1      -5.999  15.580  40.237  0.00  0.00    +0.002 C 
ATOM      8  CD2 LEU A   1      -6.507  16.032  41.641  0.00  0.00    +0.000 C 
ATOM      9  CD1 LEU A   1      -7.131  15.377  39.240  0.00  0.00    +0.000 C 
ENDBRANCH   6   7
ENDBRANCH   1   6
TORSDOF 4
REMARK  Name = ../refined-set-2016/2pyn/2pyn_pocket.pdb
REMARK  230 active torsions:
REMARK  status: ('A' for Active; 'I' for Inactive)
REMARK    1  A    between atoms: _1  and  _3
REMARK    2  A    between atoms: _3  and  _4
REMARK    3  A    between atoms: _3  and  _6
REMARK    4  A    between atoms: _6  and  _7
REMARK    5  A    between atoms: _7  and  _8
REMARK    6  A    between atoms: _8  and  _9
REMARK    7  A    between atoms: _18  and  _20
REMARK    8  A    between atoms: _20  and  _21
REMARK    9  A    between atoms: _20  and  _23
REMARK   10  A    between atoms: _23  and  _24
REMARK   11  A    between atoms: _27  and  _29
REMARK   12  A    between atoms: _29  and  _30
REMARK   13  A    between atoms: _29  and  _32
REMARK   14  A    between atoms: _32  and  _33
REMARK   15  A    between atoms: _36  and  _38
REMARK   16  A    between atoms: _38  and  _39
REMARK   17  A    between atoms: _38  and  _41
REMARK   18  A    between atoms: _41  and  _42
REMARK   19  A    between atoms: _45  and  _47
REMARK   20  A    between atoms: _47  and  _48
REMARK   21  A    between atoms: _47  and  _50
REMARK   22  A    between atoms: _50  and  _51
REMARK   23  A    between atoms: _54  and  _56
REMARK   24  A    between atoms: _56  and  _57
REMARK   25  A    between atoms: _59  and  _61
REMARK   26  A    between atoms: _61  and  _62
REMARK   27  A    between atoms: _65  and  _67
REMARK   28  A    between atoms: _67  and  _68
REMARK   29  A    between atoms: _67  and  _70
REMARK   30  A    between atoms: _70  and  _71
REMARK   31  A    between atoms: _74  and  _76
REMARK   32  A    between atoms: _76  and  _77
REMARK   33  A    between atoms: _76  and  _79
REMARK   34  A    between atoms: _79  and  _80
REMARK   35  A    between atoms: _85  and  _87
REMARK   36  A    between atoms: _87  and  _88
REMARK   37  A    between atoms: _87  and  _90
REMARK   38  A    between atoms: _90  and  _91
REMARK   39  A    between atoms: _94  and  _96
REMARK   40  A    between atoms: _96  and  _97
REMARK   41  A    between atoms: _96  and  _99
REMARK   42  A    between atoms: _102  and  _104
REMARK   43  A    between atoms: _104  and  _105
REMARK   44  A    between atoms: _104  and  _107
REMARK   45  A    between atoms: _107  and  _108
REMARK   46  A    between atoms: _108  and  _109
REMARK   47  A    between atoms: _109  and  _110
REMARK   48  A    between atoms: _110  and  _111
REMARK   49  A    between atoms: _115  and  _117
REMARK   50  A    between atoms: _117  and  _118
REMARK   51  A    between atoms: _117  and  _120
REMARK   52  A    between atoms: _120  and  _121
REMARK   53  A    between atoms: _121  and  _122
REMARK   54  A    between atoms: _124  and  _126
REMARK   55  A    between atoms: _126  and  _127
REMARK   56  A    between atoms: _126  and  _129
REMARK   57  A    between atoms: _129  and  _130
REMARK   58  A    between atoms: _133  and  _135
REMARK   59  A    between atoms: _135  and  _136
REMARK   60  A    between atoms: _138  and  _140
REMARK   61  A    between atoms: _140  and  _141
REMARK   62  A    between atoms: _143  and  _145
REMARK   63  A    between atoms: _145  and  _146
REMARK   64  A    between atoms: _145  and  _148
REMARK   65  A    between atoms: _148  and  _149
REMARK   66  A    between atoms: _152  and  _154
REMARK   67  A    between atoms: _154  and  _155
REMARK   68  A    between atoms: _157  and  _159
REMARK   69  A    between atoms: _159  and  _160
REMARK   70  A    between atoms: _162  and  _164
REMARK   71  A    between atoms: _164  and  _165
REMARK   72  A    between atoms: _164  and  _167
REMARK   73  A    between atoms: _167  and  _168
REMARK   74  A    between atoms: _171  and  _173
REMARK   75  A    between atoms: _173  and  _174
REMARK   76  A    between atoms: _173  and  _176
REMARK   77  A    between atoms: _176  and  _177
REMARK   78  A    between atoms: _181  and  _182
REMARK   79  A    between atoms: _187  and  _189
REMARK   80  A    between atoms: _189  and  _190
REMARK   81  A    between atoms: _189  and  _192
REMARK   82  A    between atoms: _192  and  _193
REMARK   83  A    between atoms: _197  and  _198
REMARK   84  A    between atoms: _203  and  _205
REMARK   85  A    between atoms: _205  and  _206
REMARK   86  A    between atoms: _205  and  _208
REMARK   87  A    between atoms: _211  and  _213
REMARK   88  A    between atoms: _213  and  _214
REMARK   89  A    between atoms: _213  and  _216
REMARK   90  A    between atoms: _216  and  _217
REMARK   91  A    between atoms: _222  and  _224
REMARK   92  A    between atoms: _224  and  _225
REMARK   93  A    between atoms: _224  and  _227
REMARK   94  A    between atoms: _227  and  _228
REMARK   95  A    between atoms: _231  and  _233
REMARK   96  A    between atoms: _233  and  _234
REMARK   97  A    between atoms: _233  and  _236
REMARK   98  A    between atoms: _236  and  _237
REMARK   99  A    between atoms: _240  and  _242
REMARK  100  A    between atoms: _242  and  _243
REMARK  101  A    between atoms: _245  and  _247
REMARK  102  A    between atoms: _247  and  _248
REMARK  103  A    between atoms: _247  and  _250
REMARK  104  A    between atoms: _250  and  _251
REMARK  105  A    between atoms: _251  and  _252
REMARK  106  A    between atoms: _252  and  _253
REMARK  107  A    between atoms: _262  and  _264
REMARK  108  A    between atoms: _264  and  _265
REMARK  109  A    between atoms: _264  and  _267
REMARK  110  A    between atoms: _267  and  _268
REMARK  111  A    between atoms: _273  and  _275
REMARK  112  A    between atoms: _275  and  _276
REMARK  113  A    between atoms: _275  and  _278
REMARK  114  A    between atoms: _278  and  _279
REMARK  115  A    between atoms: _279  and  _280
REMARK  116  A    between atoms: _280  and  _281
REMARK  117  A    between atoms: _290  and  _292
REMARK  118  A    between atoms: _292  and  _293
REMARK  119  A    between atoms: _292  and  _295
REMARK  120  A    between atoms: _295  and  _296
REMARK  121  A    between atoms: _299  and  _301
REMARK  122  A    between atoms: _301  and  _302
REMARK  123  A    between atoms: _301  and  _304
REMARK  124  A    between atoms: _304  and  _305
REMARK  125  A    between atoms: _308  and  _310
REMARK  126  A    between atoms: _310  and  _311
REMARK  127  A    between atoms: _310  and  _313
REMARK  128  A    between atoms: _313  and  _314
REMARK  129  A    between atoms: _317  and  _319
REMARK  130  A    between atoms: _319  and  _320
REMARK  131  A    between atoms: _319  and  _322
REMARK  132  A    between atoms: _322  and  _323
REMARK  133  A    between atoms: _326  and  _328
REMARK  134  A    between atoms: _328  and  _329
REMARK  135  A    between atoms: _328  and  _331
REMARK  136  A    between atoms: _331  and  _332
REMARK  137  A    between atoms: _335  and  _337
REMARK  138  A    between atoms: _337  and  _338
REMARK  139  A    between atoms: _340  and  _342
REMARK  140  A    between atoms: _342  and  _343
REMARK  141  A    between atoms: _346  and  _348
REMARK  142  A    between atoms: _348  and  _349
REMARK  143  A    between atoms: _348  and  _351
REMARK  144  A    between atoms: _351  and  _352
REMARK  145  A    between atoms: _355  and  _357
REMARK  146  A    between atoms: _357  and  _358
REMARK  147  A    between atoms: _357  and  _360
REMARK  148  A    between atoms: _360  and  _361
REMARK  149  A    between atoms: _366  and  _368
REMARK  150  A    between atoms: _368  and  _369
REMARK  151  A    between atoms: _368  and  _371
REMARK  152  A    between atoms: _371  and  _372
REMARK  153  A    between atoms: _375  and  _377
REMARK  154  A    between atoms: _377  and  _378
REMARK  155  A    between atoms: _377  and  _380
REMARK  156  A    between atoms: _383  and  _385
REMARK  157  A    between atoms: _385  and  _386
REMARK  158  A    between atoms: _385  and  _388
REMARK  159  A    between atoms: _388  and  _389
REMARK  160  A    between atoms: _389  and  _390
REMARK  161  A    between atoms: _390  and  _391
REMARK  162  A    between atoms: _391  and  _392
REMARK  163  A    between atoms: _396  and  _398
REMARK  164  A    between atoms: _398  and  _399
REMARK  165  A    between atoms: _398  and  _401
REMARK  166  A    between atoms: _401  and  _402
REMARK  167  A    between atoms: _402  and  _403
REMARK  168  A    between atoms: _405  and  _407
REMARK  169  A    between atoms: _407  and  _408
REMARK  170  A    between atoms: _407  and  _410
REMARK  171  A    between atoms: _410  and  _411
REMARK  172  A    between atoms: _414  and  _416
REMARK  173  A    between atoms: _416  and  _417
REMARK  174  A    between atoms: _419  and  _421
REMARK  175  A    between atoms: _421  and  _422
REMARK  176  A    between atoms: _424  and  _426
REMARK  177  A    between atoms: _426  and  _427
REMARK  178  A    between atoms: _426  and  _429
REMARK  179  A    between atoms: _429  and  _430
REMARK  180  A    between atoms: _433  and  _435
REMARK  181  A    between atoms: _435  and  _436
REMARK  182  A    between atoms: _438  and  _440
REMARK  183  A    between atoms: _440  and  _441
REMARK  184  A    between atoms: _443  and  _445
REMARK  185  A    between atoms: _445  and  _446
REMARK  186  A    between atoms: _445  and  _448
REMARK  187  A    between atoms: _448  and  _449
REMARK  188  A    between atoms: _455  and  _457
REMARK  189  A    between atoms: _457  and  _458
REMARK  190  A    between atoms: _457  and  _460
REMARK  191  A    between atoms: _460  and  _461
REMARK  192  A    between atoms: _464  and  _466
REMARK  193  A    between atoms: _466  and  _467
REMARK  194  A    between atoms: _466  and  _469
REMARK  195  A    between atoms: _472  and  _474
REMARK  196  A    between atoms: _474  and  _475
REMARK  197  A    between atoms: _474  and  _477
REMARK  198  A    between atoms: _477  and  _478
REMARK  199  A    between atoms: _481  and  _483
REMARK  200  A    between atoms: _483  and  _484
REMARK  201  A    between atoms: _483  and  _486
REMARK  202  A    between atoms: _486  and  _487
REMARK  203  A    between atoms: _491  and  _492
REMARK  204  A    between atoms: _497  and  _499
REMARK  205  A    between atoms: _499  and  _500
REMARK  206  A    between atoms: _499  and  _502
REMARK  207  A    between atoms: _505  and  _507
REMARK  208  A    between atoms: _507  and  _508
REMARK  209  A    between atoms: _507  and  _510
REMARK  210  A    between atoms: _510  and  _511
REMARK  211  A    between atoms: _516  and  _518
REMARK  212  A    between atoms: _518  and  _519
REMARK  213  A    between atoms: _518  and  _521
REMARK  214  A    between atoms: _521  and  _522
REMARK  215  A    between atoms: _525  and  _527
REMARK  216  A    between atoms: _527  and  _528
REMARK  217  A    between atoms: _527  and  _530
REMARK  218  A    between atoms: _530  and  _531
REMARK  219  A    between atoms: _534  and  _536
REMARK  220  A    between atoms: _536  and  _537
REMARK  221  A    between atoms: _539  and  _541
REMARK  222  A    between atoms: _541  and  _542
REMARK  223  A    between atoms: _541  and  _544
REMARK  224  A    between atoms: _544  and  _545
REMARK  225  A    between atoms: _545  and  _546
REMARK  226  A    between atoms: _546  and  _547
REMARK  227  A    between atoms: _556  and  _558
REMARK  228  A    between atoms: _558  and  _559
REMARK  229  A    between atoms: _558  and  _561
REMARK  230  A    between atoms: _561  and  _562
REMARK                            x       y       z     vdW  Elec       q    Type
REMARK                         _______ _______ _______ _____ _____    ______ ____
ROOT
ATOM      1  C   ILE A   5      -6.036  22.634  33.486  0.00  0.00    +0.241 C 
ATOM      2  O   ILE A   5      -5.954  22.177  34.637  0.00  0.00    -0.273 OA
ATOM      3  N   ILE A   6      -6.789  23.689  33.188  0.00  0.00    -0.297 N 
ATOM      4  H   ILE A   6      -6.735  24.112  32.239  0.00  0.00    +0.150 HD
ENDROOT
BRANCH   1   5
ATOM      5  CA  ILE A   5      -5.291  21.964  32.340  0.00  0.00    +0.149 C 
BRANCH   5   7
ATOM      6  C   ASN A   4      -2.947  22.533  31.875  0.00  0.00    +0.241 C 
ATOM      7  N   ILE A   5      -3.861  21.926  32.627  0.00  0.00    -0.297 N 
ATOM      8  H   ILE A   5      -3.540  21.397  33.463  0.00  0.00    +0.150 HD
ATOM      9  O   ASN A   4      -3.201  23.291  30.930  0.00  0.00    -0.273 OA
BRANCH   6  10
ATOM     10  CA  ASN A   4      -1.505  22.246  32.254  0.00  0.00    +0.158 C 
BRANCH  10  12
ATOM     11  C   VAL A   3      -1.032  20.697  30.428  0.00  0.00    +0.241 C 
ATOM     12  N   ASN A   4      -0.797  21.862  31.038  0.00  0.00    -0.297 N 
ATOM     13  H   ASN A   4      -0.091  22.512  30.636  0.00  0.00    +0.150 HD
ATOM     14  O   VAL A   3      -1.727  19.806  30.926  0.00  0.00    -0.273 OA
BRANCH  11  15
ATOM     15  CA  VAL A   3      -0.372  20.474  29.071  0.00  0.00    +0.149 C 
BRANCH  15  17
ATOM     16  C   PRO A   2       1.312  18.769  28.534  0.00  0.00    +0.241 C 
ATOM     17  N   VAL A   3       0.129  19.106  29.058  0.00  0.00    -0.297 N 
ATOM     18  H   VAL A   3      -0.460  18.358  29.475  0.00  0.00    +0.150 HD
ATOM     19  O   PRO A   2       2.116  19.591  28.096  0.00  0.00    -0.273 OA
BRANCH  16  26
ATOM     20  C   THR A   1       0.991  16.510  30.724  0.00  0.00    +0.244 C 
ATOM     21  O   THR A   1       1.901  17.175  31.248  0.00  0.00    -0.273 OA
ATOM     22  N   PRO A   2       0.790  16.478  29.390  0.00  0.00    -0.272 N 
ATOM     23  CD  PRO A   2      -0.197  15.703  28.618  0.00  0.00    +0.094 C 
ATOM     24  CG  PRO A   2       0.077  16.120  27.182  0.00  0.00    +0.024 C 
ATOM     25  CB  PRO A   2       1.415  16.685  27.133  0.00  0.00    +0.031 C 
ATOM     26  CA  PRO A   2       1.657  17.280  28.521  0.00  0.00    +0.152 C 
BRANCH  20  27
ATOM     27  CA  THR A   1       0.065  15.655  31.600  0.00  0.00    +0.172 C 
BRANCH  27  28
ATOM     28  N   THR A   1       0.855  15.093  32.682  0.00  0.00    -0.236 NA
ATOM     29  H   THR A   1       1.040  15.672  33.526  0.00  0.00    +0.142 HD
ENDBRANCH  27  28
BRANCH  27  30
ATOM     30  CB  THR A   1      -1.090  16.508  32.150  0.00  0.00    +0.135 C 
ATOM     31  CG2 THR A   1      -0.574  17.584  33.116  0.00  0.00    +0.034 C 
BRANCH  30  32
ATOM     32  OG1 THR A   1      -1.792  17.128  31.063  0.00  0.00    -0.383 OA
ATOM     33  HG1 THR A   1      -1.168  17.706  30.556  0.00  0.00    +0.210 HD
ENDBRANCH  30  32
ENDBRANCH  27  30
ENDBRANCH  20  27
ENDBRANCH  16  26
ENDBRANCH  15  17
BRANCH  15  34
ATOM     34  CB  VAL A   3      -1.402  20.679  27.916  0.00  0.00    +0.027 C 
ATOM     35  CG2 VAL A   3      -2.087  22.042  27.987  0.00  0.00    +0.002 C 
ATOM     36  CG1 VAL A   3      -0.731  20.506  26.548  0.00  0.00    +0.002 C 
ENDBRANCH  15  34
ENDBRANCH  11  15
ENDBRANCH  10  12
BRANCH  10  37
ATOM     37  CB  ASN A   4      -0.878  23.489  32.903  0.00  0.00    +0.114 C 
BRANCH  37  38
ATOM     38  CG  ASN A   4       0.581  23.251  33.343  0.00  0.00    +0.222 C 
ATOM     39  OD1 ASN A   4       0.891  22.227  33.956  0.00  0.00    -0.275 OA
ATOM     40  ND2 ASN A   4       1.478  24.190  33.014  0.00  0.00    -0.329 N 
ATOM     41 HD21 ASN A   4       2.477  24.069  33.276  0.00  0.00    +0.145 HD
ATOM     42 HD22 ASN A   4       1.175  25.040  32.496  0.00  0.00    +0.145 HD
ENDBRANCH  37  38
ENDBRANCH  10  37
ENDBRANCH   6  10
ENDBRANCH   5   7
BRANCH   5  43
ATOM     43  CB  ILE A   5      -5.854  20.500  32.191  0.00  0.00    +0.027 C 
ATOM     44  CG2 ILE A   5      -7.389  20.500  32.105  0.00  0.00    +0.002 C 
BRANCH  43  45
ATOM     45  CG1 ILE A   5      -5.223  19.763  31.007  0.00  0.00    +0.002 C 
ATOM     46  CD1 ILE A   5      -5.321  20.508  29.689  0.00  0.00    +0.000 C 
ENDBRANCH  43  45
ENDBRANCH   5  43
ENDBRANCH   1   5
BRANCH   3  47
ATOM     47  CA  ILE A   6      -7.704  24.265  34.201  0.00  0.00    +0.149 C 
BRANCH  47  48
ATOM     48  C   ILE A   6      -9.092  23.719  33.947  0.00  0.00    +0.241 C 
ATOM     49  N   GLY A   7      -9.593  22.924  34.895  0.00  0.00    -0.295 N 
ATOM     50  H   GLY A   7      -9.086  22.818  35.797  0.00  0.00    +0.150 HD
ATOM     51  O   ILE A   6      -9.706  24.037  32.918  0.00  0.00    -0.273 OA
BRANCH  49  52
ATOM     52  CA  GLY A   7     -10.848  22.198  34.683  0.00  0.00    +0.176 C 
BRANCH  52  53
ATOM     53  C   GLY A   7     -11.999  22.912  35.344  0.00  0.00    +0.243 C 
ATOM     54  O   GLY A   7     -11.819  23.982  35.933  0.00  0.00    -0.273 OA
ATOM     55  N   ARG A   8     -13.185  22.312  35.245  0.00  0.00    -0.297 N 
ATOM     56  H   ARG A   8     -13.245  21.365  34.820  0.00  0.00    +0.150 HD
BRANCH  55  57
ATOM     57  CA  ARG A   8     -14.403  22.963  35.723  0.00  0.00    +0.149 C 
BRANCH  57  58
ATOM     58  C   ARG A   8     -14.397  23.289  37.203  0.00  0.00    +0.241 C 
ATOM     59  N   ASN A   9     -13.680  22.497  38.009  0.00  0.00    -0.298 N 
ATOM     60  H   ASN A   9     -13.180  21.678  37.609  0.00  0.00    +0.150 HD
ATOM     61  O   ARG A   8     -15.048  24.257  37.614  0.00  0.00    -0.273 OA
BRANCH  59  62
ATOM     62  CA  ASN A   9     -13.589  22.768  39.451  0.00  0.00    +0.146 C 
BRANCH  62  63
ATOM     63  C   ASN A   9     -13.088  24.180  39.770  0.00  0.00    +0.227 C 
ATOM     64  O   ASN A   9     -13.497  24.779  40.776  0.00  0.00    -0.286 OA
ENDBRANCH  62  63
BRANCH  62  65
ATOM     65  CB  ASN A   9     -12.741  21.702  40.183  0.00  0.00    +0.112 C 
BRANCH  65  66
ATOM     66  CG  ASN A   9     -11.249  21.826  39.908  0.00  0.00    +0.222 C 
ATOM     67  ND2 ASN A   9     -10.452  22.066  40.964  0.00  0.00    -0.329 N 
ATOM     68 HD21 ASN A   9     -10.865  22.183  41.911  0.00  0.00    +0.145 HD
ATOM     69 HD22 ASN A   9      -9.423  22.135  40.834  0.00  0.00    +0.145 HD
ATOM     70  OD1 ASN A   9     -10.814  21.681  38.775  0.00  0.00    -0.275 OA
ENDBRANCH  65  66
ENDBRANCH  62  65
ENDBRANCH  59  62
ENDBRANCH  57  58
BRANCH  57  71
ATOM     71  CB  ARG A   8     -15.633  22.138  35.378  0.00  0.00    +0.033 C 
BRANCH  71  72
ATOM     72  CG  ARG A   8     -15.877  22.024  33.865  0.00  0.00    +0.045 C 
BRANCH  72  73
ATOM     73  CD  ARG A   8     -17.267  21.373  33.587  0.00  0.00    +0.174 C 
BRANCH  73  74
ATOM     74  NE  ARG A   8     -17.335  19.999  34.110  0.00  0.00    -0.265 N 
ATOM     75  CZ  ARG A   8     -17.898  19.636  35.265  0.00  0.00    +0.342 C 
ATOM     76  NH2 ARG A   8     -18.502  20.526  36.057  0.00  0.00    -0.292 N 
ATOM     77 HH21 ARG A   8     -18.933  20.218  36.952  0.00  0.00    +0.255 HD
ATOM     78 HH22 ARG A   8     -18.541  21.527  35.779  0.00  0.00    +0.255 HD
ATOM     79  NH1 ARG A   8     -17.869  18.365  35.630  0.00  0.00    -0.292 N 
ATOM     80 HH11 ARG A   8     -18.305  18.072  36.528  0.00  0.00    +0.255 HD
ATOM     81 HH12 ARG A   8     -17.411  17.659  35.019  0.00  0.00    +0.255 HD
ATOM     82  HE  ARG A   8     -16.909  19.248  33.531  0.00  0.00    +0.259 HD
ENDBRANCH  73  74
ENDBRANCH  72  73
ENDBRANCH  71  72
ENDBRANCH  57  71
ENDBRANCH  55  57
ENDBRANCH  52  53
ENDBRANCH  49  52
ENDBRANCH  47  48
BRANCH  47  83
ATOM     83  CB  ILE A   6      -7.734  25.801  34.137  0.00  0.00    +0.027 C 
ATOM     84  CG2 ILE A   6      -8.674  26.412  35.249  0.00  0.00    +0.002 C 
BRANCH  83  85
ATOM     85  CG1 ILE A   6      -6.298  26.350  34.215  0.00  0.00    +0.002 C 
ATOM     86  CD1 ILE A   6      -5.529  25.969  35.476  0.00  0.00    +0.000 C 
ENDBRANCH  83  85
ENDBRANCH  47  83
ENDBRANCH   3  47
TORSDOF 32
REMARK  Name = ../refined-set-2016/2pyn/2pyn_pocket.pdb
REMARK  230 active torsions:
REMARK  status: ('A' for Active; 'I' for Inactive)
REMARK    1  A    between atoms: _1  and  _3
REMARK    2  A    between atoms: _3  and  _4
REMARK    3  A    between atoms: _3  and  _6
REMARK    4  A    between atoms: _6  and  _7
REMARK    5  A    between atoms: _7  and  _8
REMARK    6  A    between atoms: _8  and  _9
REMARK    7  A    between atoms: _18  and  _20
REMARK    8  A    between atoms: _20  and  _21
REMARK    9  A    between atoms: _20  and  _23
REMARK   10  A    between atoms: _23  and  _24
REMARK   11  A    between atoms: _27  and  _29
REMARK   12  A    between atoms: _29  and  _30
REMARK   13  A    between atoms: _29  and  _32
REMARK   14  A    between atoms: _32  and  _33
REMARK   15  A    between atoms: _36  and  _38
REMARK   16  A    between atoms: _38  and  _39
REMARK   17  A    between atoms: _38  and  _41
REMARK   18  A    between atoms: _41  and  _42
REMARK   19  A    between atoms: _45  and  _47
REMARK   20  A    between atoms: _47  and  _48
REMARK   21  A    between atoms: _47  and  _50
REMARK   22  A    between atoms: _50  and  _51
REMARK   23  A    between atoms: _54  and  _56
REMARK   24  A    between atoms: _56  and  _57
REMARK   25  A    between atoms: _59  and  _61
REMARK   26  A    between atoms: _61  and  _62
REMARK   27  A    between atoms: _65  and  _67
REMARK   28  A    between atoms: _67  and  _68
REMARK   29  A    between atoms: _67  and  _70
REMARK   30  A    between atoms: _70  and  _71
REMARK   31  A    between atoms: _74  and  _76
REMARK   32  A    between atoms: _76  and  _77
REMARK   33  A    between atoms: _76  and  _79
REMARK   34  A    between atoms: _79  and  _80
REMARK   35  A    between atoms: _85  and  _87
REMARK   36  A    between atoms: _87  and  _88
REMARK   37  A    between atoms: _87  and  _90
REMARK   38  A    between atoms: _90  and  _91
REMARK   39  A    between atoms: _94  and  _96
REMARK   40  A    between atoms: _96  and  _97
REMARK   41  A    between atoms: _96  and  _99
REMARK   42  A    between atoms: _102  and  _104
REMARK   43  A    between atoms: _104  and  _105
REMARK   44  A    between atoms: _104  and  _107
REMARK   45  A    between atoms: _107  and  _108
REMARK   46  A    between atoms: _108  and  _109
REMARK   47  A    between atoms: _109  and  _110
REMARK   48  A    between atoms: _110  and  _111
REMARK   49  A    between atoms: _115  and  _117
REMARK   50  A    between atoms: _117  and  _118
REMARK   51  A    between atoms: _117  and  _120
REMARK   52  A    between atoms: _120  and  _121
REMARK   53  A    between atoms: _121  and  _122
REMARK   54  A    between atoms: _124  and  _126
REMARK   55  A    between atoms: _126  and  _127
REMARK   56  A    between atoms: _126  and  _129
REMARK   57  A    between atoms: _129  and  _130
REMARK   58  A    between atoms: _133  and  _135
REMARK   59  A    between atoms: _135  and  _136
REMARK   60  A    between atoms: _138  and  _140
REMARK   61  A    between atoms: _140  and  _141
REMARK   62  A    between atoms: _143  and  _145
REMARK   63  A    between atoms: _145  and  _146
REMARK   64  A    between atoms: _145  and  _148
REMARK   65  A    between atoms: _148  and  _149
REMARK   66  A    between atoms: _152  and  _154
REMARK   67  A    between atoms: _154  and  _155
REMARK   68  A    between atoms: _157  and  _159
REMARK   69  A    between atoms: _159  and  _160
REMARK   70  A    between atoms: _162  and  _164
REMARK   71  A    between atoms: _164  and  _165
REMARK   72  A    between atoms: _164  and  _167
REMARK   73  A    between atoms: _167  and  _168
REMARK   74  A    between atoms: _171  and  _173
REMARK   75  A    between atoms: _173  and  _174
REMARK   76  A    between atoms: _173  and  _176
REMARK   77  A    between atoms: _176  and  _177
REMARK   78  A    between atoms: _181  and  _182
REMARK   79  A    between atoms: _187  and  _189
REMARK   80  A    between atoms: _189  and  _190
REMARK   81  A    between atoms: _189  and  _192
REMARK   82  A    between atoms: _192  and  _193
REMARK   83  A    between atoms: _197  and  _198
REMARK   84  A    between atoms: _203  and  _205
REMARK   85  A    between atoms: _205  and  _206
REMARK   86  A    between atoms: _205  and  _208
REMARK   87  A    between atoms: _211  and  _213
REMARK   88  A    between atoms: _213  and  _214
REMARK   89  A    between atoms: _213  and  _216
REMARK   90  A    between atoms: _216  and  _217
REMARK   91  A    between atoms: _222  and  _224
REMARK   92  A    between atoms: _224  and  _225
REMARK   93  A    between atoms: _224  and  _227
REMARK   94  A    between atoms: _227  and  _228
REMARK   95  A    between atoms: _231  and  _233
REMARK   96  A    between atoms: _233  and  _234
REMARK   97  A    between atoms: _233  and  _236
REMARK   98  A    between atoms: _236  and  _237
REMARK   99  A    between atoms: _240  and  _242
REMARK  100  A    between atoms: _242  and  _243
REMARK  101  A    between atoms: _245  and  _247
REMARK  102  A    between atoms: _247  and  _248
REMARK  103  A    between atoms: _247  and  _250
REMARK  104  A    between atoms: _250  and  _251
REMARK  105  A    between atoms: _251  and  _252
REMARK  106  A    between atoms: _252  and  _253
REMARK  107  A    between atoms: _262  and  _264
REMARK  108  A    between atoms: _264  and  _265
REMARK  109  A    between atoms: _264  and  _267
REMARK  110  A    between atoms: _267  and  _268
REMARK  111  A    between atoms: _273  and  _275
REMARK  112  A    between atoms: _275  and  _276
REMARK  113  A    between atoms: _275  and  _278
REMARK  114  A    between atoms: _278  and  _279
REMARK  115  A    between atoms: _279  and  _280
REMARK  116  A    between atoms: _280  and  _281
REMARK  117  A    between atoms: _290  and  _292
REMARK  118  A    between atoms: _292  and  _293
REMARK  119  A    between atoms: _292  and  _295
REMARK  120  A    between atoms: _295  and  _296
REMARK  121  A    between atoms: _299  and  _301
REMARK  122  A    between atoms: _301  and  _302
REMARK  123  A    between atoms: _301  and  _304
REMARK  124  A    between atoms: _304  and  _305
REMARK  125  A    between atoms: _308  and  _310
REMARK  126  A    between atoms: _310  and  _311
REMARK  127  A    between atoms: _310  and  _313
REMARK  128  A    between atoms: _313  and  _314
REMARK  129  A    between atoms: _317  and  _319
REMARK  130  A    between atoms: _319  and  _320
REMARK  131  A    between atoms: _319  and  _322
REMARK  132  A    between atoms: _322  and  _323
REMARK  133  A    between atoms: _326  and  _328
REMARK  134  A    between atoms: _328  and  _329
REMARK  135  A    between atoms: _328  and  _331
REMARK  136  A    between atoms: _331  and  _332
REMARK  137  A    between atoms: _335  and  _337
REMARK  138  A    between atoms: _337  and  _338
REMARK  139  A    between atoms: _340  and  _342
REMARK  140  A    between atoms: _342  and  _343
REMARK  141  A    between atoms: _346  and  _348
REMARK  142  A    between atoms: _348  and  _349
REMARK  143  A    between atoms: _348  and  _351
REMARK  144  A    between atoms: _351  and  _352
REMARK  145  A    between atoms: _355  and  _357
REMARK  146  A    between atoms: _357  and  _358
REMARK  147  A    between atoms: _357  and  _360
REMARK  148  A    between atoms: _360  and  _361
REMARK  149  A    between atoms: _366  and  _368
REMARK  150  A    between atoms: _368  and  _369
REMARK  151  A    between atoms: _368  and  _371
REMARK  152  A    between atoms: _371  and  _372
REMARK  153  A    between atoms: _375  and  _377
REMARK  154  A    between atoms: _377  and  _378
REMARK  155  A    between atoms: _377  and  _380
REMARK  156  A    between atoms: _383  and  _385
REMARK  157  A    between atoms: _385  and  _386
REMARK  158  A    between atoms: _385  and  _388
REMARK  159  A    between atoms: _388  and  _389
REMARK  160  A    between atoms: _389  and  _390
REMARK  161  A    between atoms: _390  and  _391
REMARK  162  A    between atoms: _391  and  _392
REMARK  163  A    between atoms: _396  and  _398
REMARK  164  A    between atoms: _398  and  _399
REMARK  165  A    between atoms: _398  and  _401
REMARK  166  A    between atoms: _401  and  _402
REMARK  167  A    between atoms: _402  and  _403
REMARK  168  A    between atoms: _405  and  _407
REMARK  169  A    between atoms: _407  and  _408
REMARK  170  A    between atoms: _407  and  _410
REMARK  171  A    between atoms: _410  and  _411
REMARK  172  A    between atoms: _414  and  _416
REMARK  173  A    between atoms: _416  and  _417
REMARK  174  A    between atoms: _419  and  _421
REMARK  175  A    between atoms: _421  and  _422
REMARK  176  A    between atoms: _424  and  _426
REMARK  177  A    between atoms: _426  and  _427
REMARK  178  A    between atoms: _426  and  _429
REMARK  179  A    between atoms: _429  and  _430
REMARK  180  A    between atoms: _433  and  _435
REMARK  181  A    between atoms: _435  and  _436
REMARK  182  A    between atoms: _438  and  _440
REMARK  183  A    between atoms: _440  and  _441
REMARK  184  A    between atoms: _443  and  _445
REMARK  185  A    between atoms: _445  and  _446
REMARK  186  A    between atoms: _445  and  _448
REMARK  187  A    between atoms: _448  and  _449
REMARK  188  A    between atoms: _455  and  _457
REMARK  189  A    between atoms: _457  and  _458
REMARK  190  A    between atoms: _457  and  _460
REMARK  191  A    between atoms: _460  and  _461
REMARK  192  A    between atoms: _464  and  _466
REMARK  193  A    between atoms: _466  and  _467
REMARK  194  A    between atoms: _466  and  _469
REMARK  195  A    between atoms: _472  and  _474
REMARK  196  A    between atoms: _474  and  _475
REMARK  197  A    between atoms: _474  and  _477
REMARK  198  A    between atoms: _477  and  _478
REMARK  199  A    between atoms: _481  and  _483
REMARK  200  A    between atoms: _483  and  _484
REMARK  201  A    between atoms: _483  and  _486
REMARK  202  A    between atoms: _486  and  _487
REMARK  203  A    between atoms: _491  and  _492
REMARK  204  A    between atoms: _497  and  _499
REMARK  205  A    between atoms: _499  and  _500
REMARK  206  A    between atoms: _499  and  _502
REMARK  207  A    between atoms: _505  and  _507
REMARK  208  A    between atoms: _507  and  _508
REMARK  209  A    between atoms: _507  and  _510
REMARK  210  A    between atoms: _510  and  _511
REMARK  211  A    between atoms: _516  and  _518
REMARK  212  A    between atoms: _518  and  _519
REMARK  213  A    between atoms: _518  and  _521
REMARK  214  A    between atoms: _521  and  _522
REMARK  215  A    between atoms: _525  and  _527
REMARK  216  A    between atoms: _527  and  _528
REMARK  217  A    between atoms: _527  and  _530
REMARK  218  A    between atoms: _530  and  _531
REMARK  219  A    between atoms: _534  and  _536
REMARK  220  A    between atoms: _536  and  _537
REMARK  221  A    between atoms: _539  and  _541
REMARK  222  A    between atoms: _541  and  _542
REMARK  223  A    between atoms: _541  and  _544
REMARK  224  A    between atoms: _544  and  _545
REMARK  225  A    between atoms: _545  and  _546
REMARK  226  A    between atoms: _546  and  _547
REMARK  227  A    between atoms: _556  and  _558
REMARK  228  A    between atoms: _558  and  _559
REMARK  229  A    between atoms: _558  and  _561
REMARK  230  A    between atoms: _561  and  _562
REMARK                            x       y       z     vdW  Elec       q    Type
REMARK                         _______ _______ _______ _____ _____    ______ ____
ROOT
ATOM      1  O   HOH     1      -6.867  18.368  21.499  0.00  0.00    +0.000 OA
ENDROOT
TORSDOF 0
REMARK  Name = ../refined-set-2016/2pyn/2pyn_pocket.pdb
REMARK  230 active torsions:
REMARK  status: ('A' for Active; 'I' for Inactive)
REMARK    1  A    between atoms: _1  and  _3
REMARK    2  A    between atoms: _3  and  _4
REMARK    3  A    between atoms: _3  and  _6
REMARK    4  A    between atoms: _6  and  _7
REMARK    5  A    between atoms: _7  and  _8
REMARK    6  A    between atoms: _8  and  _9
REMARK    7  A    between atoms: _18  and  _20
REMARK    8  A    between atoms: _20  and  _21
REMARK    9  A    between atoms: _20  and  _23
REMARK   10  A    between atoms: _23  and  _24
REMARK   11  A    between atoms: _27  and  _29
REMARK   12  A    between atoms: _29  and  _30
REMARK   13  A    between atoms: _29  and  _32
REMARK   14  A    between atoms: _32  and  _33
REMARK   15  A    between atoms: _36  and  _38
REMARK   16  A    between atoms: _38  and  _39
REMARK   17  A    between atoms: _38  and  _41
REMARK   18  A    between atoms: _41  and  _42
REMARK   19  A    between atoms: _45  and  _47
REMARK   20  A    between atoms: _47  and  _48
REMARK   21  A    between atoms: _47  and  _50
REMARK   22  A    between atoms: _50  and  _51
REMARK   23  A    between atoms: _54  and  _56
REMARK   24  A    between atoms: _56  and  _57
REMARK   25  A    between atoms: _59  and  _61
REMARK   26  A    between atoms: _61  and  _62
REMARK   27  A    between atoms: _65  and  _67
REMARK   28  A    between atoms: _67  and  _68
REMARK   29  A    between atoms: _67  and  _70
REMARK   30  A    between atoms: _70  and  _71
REMARK   31  A    between atoms: _74  and  _76
REMARK   32  A    between atoms: _76  and  _77
REMARK   33  A    between atoms: _76  and  _79
REMARK   34  A    between atoms: _79  and  _80
REMARK   35  A    between atoms: _85  and  _87
REMARK   36  A    between atoms: _87  and  _88
REMARK   37  A    between atoms: _87  and  _90
REMARK   38  A    between atoms: _90  and  _91
REMARK   39  A    between atoms: _94  and  _96
REMARK   40  A    between atoms: _96  and  _97
REMARK   41  A    between atoms: _96  and  _99
REMARK   42  A    between atoms: _102  and  _104
REMARK   43  A    between atoms: _104  and  _105
REMARK   44  A    between atoms: _104  and  _107
REMARK   45  A    between atoms: _107  and  _108
REMARK   46  A    between atoms: _108  and  _109
REMARK   47  A    between atoms: _109  and  _110
REMARK   48  A    between atoms: _110  and  _111
REMARK   49  A    between atoms: _115  and  _117
REMARK   50  A    between atoms: _117  and  _118
REMARK   51  A    between atoms: _117  and  _120
REMARK   52  A    between atoms: _120  and  _121
REMARK   53  A    between atoms: _121  and  _122
REMARK   54  A    between atoms: _124  and  _126
REMARK   55  A    between atoms: _126  and  _127
REMARK   56  A    between atoms: _126  and  _129
REMARK   57  A    between atoms: _129  and  _130
REMARK   58  A    between atoms: _133  and  _135
REMARK   59  A    between atoms: _135  and  _136
REMARK   60  A    between atoms: _138  and  _140
REMARK   61  A    between atoms: _140  and  _141
REMARK   62  A    between atoms: _143  and  _145
REMARK   63  A    between atoms: _145  and  _146
REMARK   64  A    between atoms: _145  and  _148
REMARK   65  A    between atoms: _148  and  _149
REMARK   66  A    between atoms: _152  and  _154
REMARK   67  A    between atoms: _154  and  _155
REMARK   68  A    between atoms: _157  and  _159
REMARK   69  A    between atoms: _159  and  _160
REMARK   70  A    between atoms: _162  and  _164
REMARK   71  A    between atoms: _164  and  _165
REMARK   72  A    between atoms: _164  and  _167
REMARK   73  A    between atoms: _167  and  _168
REMARK   74  A    between atoms: _171  and  _173
REMARK   75  A    between atoms: _173  and  _174
REMARK   76  A    between atoms: _173  and  _176
REMARK   77  A    between atoms: _176  and  _177
REMARK   78  A    between atoms: _181  and  _182
REMARK   79  A    between atoms: _187  and  _189
REMARK   80  A    between atoms: _189  and  _190
REMARK   81  A    between atoms: _189  and  _192
REMARK   82  A    between atoms: _192  and  _193
REMARK   83  A    between atoms: _197  and  _198
REMARK   84  A    between atoms: _203  and  _205
REMARK   85  A    between atoms: _205  and  _206
REMARK   86  A    between atoms: _205  and  _208
REMARK   87  A    between atoms: _211  and  _213
REMARK   88  A    between atoms: _213  and  _214
REMARK   89  A    between atoms: _213  and  _216
REMARK   90  A    between atoms: _216  and  _217
REMARK   91  A    between atoms: _222  and  _224
REMARK   92  A    between atoms: _224  and  _225
REMARK   93  A    between atoms: _224  and  _227
REMARK   94  A    between atoms: _227  and  _228
REMARK   95  A    between atoms: _231  and  _233
REMARK   96  A    between atoms: _233  and  _234
REMARK   97  A    between atoms: _233  and  _236
REMARK   98  A    between atoms: _236  and  _237
REMARK   99  A    between atoms: _240  and  _242
REMARK  100  A    between atoms: _242  and  _243
REMARK  101  A    between atoms: _245  and  _247
REMARK  102  A    between atoms: _247  and  _248
REMARK  103  A    between atoms: _247  and  _250
REMARK  104  A    between atoms: _250  and  _251
REMARK  105  A    between atoms: _251  and  _252
REMARK  106  A    between atoms: _252  and  _253
REMARK  107  A    between atoms: _262  and  _264
REMARK  108  A    between atoms: _264  and  _265
REMARK  109  A    between atoms: _264  and  _267
REMARK  110  A    between atoms: _267  and  _268
REMARK  111  A    between atoms: _273  and  _275
REMARK  112  A    between atoms: _275  and  _276
REMARK  113  A    between atoms: _275  and  _278
REMARK  114  A    between atoms: _278  and  _279
REMARK  115  A    between atoms: _279  and  _280
REMARK  116  A    between atoms: _280  and  _281
REMARK  117  A    between atoms: _290  and  _292
REMARK  118  A    between atoms: _292  and  _293
REMARK  119  A    between atoms: _292  and  _295
REMARK  120  A    between atoms: _295  and  _296
REMARK  121  A    between atoms: _299  and  _301
REMARK  122  A    between atoms: _301  and  _302
REMARK  123  A    between atoms: _301  and  _304
REMARK  124  A    between atoms: _304  and  _305
REMARK  125  A    between atoms: _308  and  _310
REMARK  126  A    between atoms: _310  and  _311
REMARK  127  A    between atoms: _310  and  _313
REMARK  128  A    between atoms: _313  and  _314
REMARK  129  A    between atoms: _317  and  _319
REMARK  130  A    between atoms: _319  and  _320
REMARK  131  A    between atoms: _319  and  _322
REMARK  132  A    between atoms: _322  and  _323
REMARK  133  A    between atoms: _326  and  _328
REMARK  134  A    between atoms: _328  and  _329
REMARK  135  A    between atoms: _328  and  _331
REMARK  136  A    between atoms: _331  and  _332
REMARK  137  A    between atoms: _335  and  _337
REMARK  138  A    between atoms: _337  and  _338
REMARK  139  A    between atoms: _340  and  _342
REMARK  140  A    between atoms: _342  and  _343
REMARK  141  A    between atoms: _346  and  _348
REMARK  142  A    between atoms: _348  and  _349
REMARK  143  A    between atoms: _348  and  _351
REMARK  144  A    between atoms: _351  and  _352
REMARK  145  A    between atoms: _355  and  _357
REMARK  146  A    between atoms: _357  and  _358
REMARK  147  A    between atoms: _357  and  _360
REMARK  148  A    between atoms: _360  and  _361
REMARK  149  A    between atoms: _366  and  _368
REMARK  150  A    between atoms: _368  and  _369
REMARK  151  A    between atoms: _368  and  _371
REMARK  152  A    between atoms: _371  and  _372
REMARK  153  A    between atoms: _375  and  _377
REMARK  154  A    between atoms: _377  and  _378
REMARK  155  A    between atoms: _377  and  _380
REMARK  156  A    between atoms: _383  and  _385
REMARK  157  A    between atoms: _385  and  _386
REMARK  158  A    between atoms: _385  and  _388
REMARK  159  A    between atoms: _388  and  _389
REMARK  160  A    between atoms: _389  and  _390
REMARK  161  A    between atoms: _390  and  _391
REMARK  162  A    between atoms: _391  and  _392
REMARK  163  A    between atoms: _396  and  _398
REMARK  164  A    between atoms: _398  and  _399
REMARK  165  A    between atoms: _398  and  _401
REMARK  166  A    between atoms: _401  and  _402
REMARK  167  A    between atoms: _402  and  _403
REMARK  168  A    between atoms: _405  and  _407
REMARK  169  A    between atoms: _407  and  _408
REMARK  170  A    between atoms: _407  and  _410
REMARK  171  A    between atoms: _410  and  _411
REMARK  172  A    between atoms: _414  and  _416
REMARK  173  A    between atoms: _416  and  _417
REMARK  174  A    between atoms: _419  and  _421
REMARK  175  A    between atoms: _421  and  _422
REMARK  176  A    between atoms: _424  and  _426
REMARK  177  A    between atoms: _426  and  _427
REMARK  178  A    between atoms: _426  and  _429
REMARK  179  A    between atoms: _429  and  _430
REMARK  180  A    between atoms: _433  and  _435
REMARK  181  A    between atoms: _435  and  _436
REMARK  182  A    between atoms: _438  and  _440
REMARK  183  A    between atoms: _440  and  _441
REMARK  184  A    between atoms: _443  and  _445
REMARK  185  A    between atoms: _445  and  _446
REMARK  186  A    between atoms: _445  and  _448
REMARK  187  A    between atoms: _448  and  _449
REMARK  188  A    between atoms: _455  and  _457
REMARK  189  A    between atoms: _457  and  _458
REMARK  190  A    between atoms: _457  and  _460
REMARK  191  A    between atoms: _460  and  _461
REMARK  192  A    between atoms: _464  and  _466
REMARK  193  A    between atoms: _466  and  _467
REMARK  194  A    between atoms: _466  and  _469
REMARK  195  A    between atoms: _472  and  _474
REMARK  196  A    between atoms: _474  and  _475
REMARK  197  A    between atoms: _474  and  _477
REMARK  198  A    between atoms: _477  and  _478
REMARK  199  A    between atoms: _481  and  _483
REMARK  200  A    between atoms: _483  and  _484
REMARK  201  A    between atoms: _483  and  _486
REMARK  202  A    between atoms: _486  and  _487
REMARK  203  A    between atoms: _491  and  _492
REMARK  204  A    between atoms: _497  and  _499
REMARK  205  A    between atoms: _499  and  _500
REMARK  206  A    between atoms: _499  and  _502
REMARK  207  A    between atoms: _505  and  _507
REMARK  208  A    between atoms: _507  and  _508
REMARK  209  A    between atoms: _507  and  _510
REMARK  210  A    between atoms: _510  and  _511
REMARK  211  A    between atoms: _516  and  _518
REMARK  212  A    between atoms: _518  and  _519
REMARK  213  A    between atoms: _518  and  _521
REMARK  214  A    between atoms: _521  and  _522
REMARK  215  A    between atoms: _525  and  _527
REMARK  216  A    between atoms: _527  and  _528
REMARK  217  A    between atoms: _527  and  _530
REMARK  218  A    between atoms: _530  and  _531
REMARK  219  A    between atoms: _534  and  _536
REMARK  220  A    between atoms: _536  and  _537
REMARK  221  A    between atoms: _539  and  _541
REMARK  222  A    between atoms: _541  and  _542
REMARK  223  A    between atoms: _541  and  _544
REMARK  224  A    between atoms: _544  and  _545
REMARK  225  A    between atoms: _545  and  _546
REMARK  226  A    between atoms: _546  and  _547
REMARK  227  A    between atoms: _556  and  _558
REMARK  228  A    between atoms: _558  and  _559
REMARK  229  A    between atoms: _558  and  _561
REMARK  230  A    between atoms: _561  and  _562
REMARK                            x       y       z     vdW  Elec       q    Type
REMARK                         _______ _______ _______ _____ _____    ______ ____
ROOT
ATOM      1  O   HOH     1     -12.207  17.186  14.219  0.00  0.00    +0.000 OA
ENDROOT
TORSDOF 0
REMARK  Name = ../refined-set-2016/2pyn/2pyn_pocket.pdb
REMARK  230 active torsions:
REMARK  status: ('A' for Active; 'I' for Inactive)
REMARK    1  A    between atoms: _1  and  _3
REMARK    2  A    between atoms: _3  and  _4
REMARK    3  A    between atoms: _3  and  _6
REMARK    4  A    between atoms: _6  and  _7
REMARK    5  A    between atoms: _7  and  _8
REMARK    6  A    between atoms: _8  and  _9
REMARK    7  A    between atoms: _18  and  _20
REMARK    8  A    between atoms: _20  and  _21
REMARK    9  A    between atoms: _20  and  _23
REMARK   10  A    between atoms: _23  and  _24
REMARK   11  A    between atoms: _27  and  _29
REMARK   12  A    between atoms: _29  and  _30
REMARK   13  A    between atoms: _29  and  _32
REMARK   14  A    between atoms: _32  and  _33
REMARK   15  A    between atoms: _36  and  _38
REMARK   16  A    between atoms: _38  and  _39
REMARK   17  A    between atoms: _38  and  _41
REMARK   18  A    between atoms: _41  and  _42
REMARK   19  A    between atoms: _45  and  _47
REMARK   20  A    between atoms: _47  and  _48
REMARK   21  A    between atoms: _47  and  _50
REMARK   22  A    between atoms: _50  and  _51
REMARK   23  A    between atoms: _54  and  _56
REMARK   24  A    between atoms: _56  and  _57
REMARK   25  A    between atoms: _59  and  _61
REMARK   26  A    between atoms: _61  and  _62
REMARK   27  A    between atoms: _65  and  _67
REMARK   28  A    between atoms: _67  and  _68
REMARK   29  A    between atoms: _67  and  _70
REMARK   30  A    between atoms: _70  and  _71
REMARK   31  A    between atoms: _74  and  _76
REMARK   32  A    between atoms: _76  and  _77
REMARK   33  A    between atoms: _76  and  _79
REMARK   34  A    between atoms: _79  and  _80
REMARK   35  A    between atoms: _85  and  _87
REMARK   36  A    between atoms: _87  and  _88
REMARK   37  A    between atoms: _87  and  _90
REMARK   38  A    between atoms: _90  and  _91
REMARK   39  A    between atoms: _94  and  _96
REMARK   40  A    between atoms: _96  and  _97
REMARK   41  A    between atoms: _96  and  _99
REMARK   42  A    between atoms: _102  and  _104
REMARK   43  A    between atoms: _104  and  _105
REMARK   44  A    between atoms: _104  and  _107
REMARK   45  A    between atoms: _107  and  _108
REMARK   46  A    between atoms: _108  and  _109
REMARK   47  A    between atoms: _109  and  _110
REMARK   48  A    between atoms: _110  and  _111
REMARK   49  A    between atoms: _115  and  _117
REMARK   50  A    between atoms: _117  and  _118
REMARK   51  A    between atoms: _117  and  _120
REMARK   52  A    between atoms: _120  and  _121
REMARK   53  A    between atoms: _121  and  _122
REMARK   54  A    between atoms: _124  and  _126
REMARK   55  A    between atoms: _126  and  _127
REMARK   56  A    between atoms: _126  and  _129
REMARK   57  A    between atoms: _129  and  _130
REMARK   58  A    between atoms: _133  and  _135
REMARK   59  A    between atoms: _135  and  _136
REMARK   60  A    between atoms: _138  and  _140
REMARK   61  A    between atoms: _140  and  _141
REMARK   62  A    between atoms: _143  and  _145
REMARK   63  A    between atoms: _145  and  _146
REMARK   64  A    between atoms: _145  and  _148
REMARK   65  A    between atoms: _148  and  _149
REMARK   66  A    between atoms: _152  and  _154
REMARK   67  A    between atoms: _154  and  _155
REMARK   68  A    between atoms: _157  and  _159
REMARK   69  A    between atoms: _159  and  _160
REMARK   70  A    between atoms: _162  and  _164
REMARK   71  A    between atoms: _164  and  _165
REMARK   72  A    between atoms: _164  and  _167
REMARK   73  A    between atoms: _167  and  _168
REMARK   74  A    between atoms: _171  and  _173
REMARK   75  A    between atoms: _173  and  _174
REMARK   76  A    between atoms: _173  and  _176
REMARK   77  A    between atoms: _176  and  _177
REMARK   78  A    between atoms: _181  and  _182
REMARK   79  A    between atoms: _187  and  _189
REMARK   80  A    between atoms: _189  and  _190
REMARK   81  A    between atoms: _189  and  _192
REMARK   82  A    between atoms: _192  and  _193
REMARK   83  A    between atoms: _197  and  _198
REMARK   84  A    between atoms: _203  and  _205
REMARK   85  A    between atoms: _205  and  _206
REMARK   86  A    between atoms: _205  and  _208
REMARK   87  A    between atoms: _211  and  _213
REMARK   88  A    between atoms: _213  and  _214
REMARK   89  A    between atoms: _213  and  _216
REMARK   90  A    between atoms: _216  and  _217
REMARK   91  A    between atoms: _222  and  _224
REMARK   92  A    between atoms: _224  and  _225
REMARK   93  A    between atoms: _224  and  _227
REMARK   94  A    between atoms: _227  and  _228
REMARK   95  A    between atoms: _231  and  _233
REMARK   96  A    between atoms: _233  and  _234
REMARK   97  A    between atoms: _233  and  _236
REMARK   98  A    between atoms: _236  and  _237
REMARK   99  A    between atoms: _240  and  _242
REMARK  100  A    between atoms: _242  and  _243
REMARK  101  A    between atoms: _245  and  _247
REMARK  102  A    between atoms: _247  and  _248
REMARK  103  A    between atoms: _247  and  _250
REMARK  104  A    between atoms: _250  and  _251
REMARK  105  A    between atoms: _251  and  _252
REMARK  106  A    between atoms: _252  and  _253
REMARK  107  A    between atoms: _262  and  _264
REMARK  108  A    between atoms: _264  and  _265
REMARK  109  A    between atoms: _264  and  _267
REMARK  110  A    between atoms: _267  and  _268
REMARK  111  A    between atoms: _273  and  _275
REMARK  112  A    between atoms: _275  and  _276
REMARK  113  A    between atoms: _275  and  _278
REMARK  114  A    between atoms: _278  and  _279
REMARK  115  A    between atoms: _279  and  _280
REMARK  116  A    between atoms: _280  and  _281
REMARK  117  A    between atoms: _290  and  _292
REMARK  118  A    between atoms: _292  and  _293
REMARK  119  A    between atoms: _292  and  _295
REMARK  120  A    between atoms: _295  and  _296
REMARK  121  A    between atoms: _299  and  _301
REMARK  122  A    between atoms: _301  and  _302
REMARK  123  A    between atoms: _301  and  _304
REMARK  124  A    between atoms: _304  and  _305
REMARK  125  A    between atoms: _308  and  _310
REMARK  126  A    between atoms: _310  and  _311
REMARK  127  A    between atoms: _310  and  _313
REMARK  128  A    between atoms: _313  and  _314
REMARK  129  A    between atoms: _317  and  _319
REMARK  130  A    between atoms: _319  and  _320
REMARK  131  A    between atoms: _319  and  _322
REMARK  132  A    between atoms: _322  and  _323
REMARK  133  A    between atoms: _326  and  _328
REMARK  134  A    between atoms: _328  and  _329
REMARK  135  A    between atoms: _328  and  _331
REMARK  136  A    between atoms: _331  and  _332
REMARK  137  A    between atoms: _335  and  _337
REMARK  138  A    between atoms: _337  and  _338
REMARK  139  A    between atoms: _340  and  _342
REMARK  140  A    between atoms: _342  and  _343
REMARK  141  A    between atoms: _346  and  _348
REMARK  142  A    between atoms: _348  and  _349
REMARK  143  A    between atoms: _348  and  _351
REMARK  144  A    between atoms: _351  and  _352
REMARK  145  A    between atoms: _355  and  _357
REMARK  146  A    between atoms: _357  and  _358
REMARK  147  A    between atoms: _357  and  _360
REMARK  148  A    between atoms: _360  and  _361
REMARK  149  A    between atoms: _366  and  _368
REMARK  150  A    between atoms: _368  and  _369
REMARK  151  A    between atoms: _368  and  _371
REMARK  152  A    between atoms: _371  and  _372
REMARK  153  A    between atoms: _375  and  _377
REMARK  154  A    between atoms: _377  and  _378
REMARK  155  A    between atoms: _377  and  _380
REMARK  156  A    between atoms: _383  and  _385
REMARK  157  A    between atoms: _385  and  _386
REMARK  158  A    between atoms: _385  and  _388
REMARK  159  A    between atoms: _388  and  _389
REMARK  160  A    between atoms: _389  and  _390
REMARK  161  A    between atoms: _390  and  _391
REMARK  162  A    between atoms: _391  and  _392
REMARK  163  A    between atoms: _396  and  _398
REMARK  164  A    between atoms: _398  and  _399
REMARK  165  A    between atoms: _398  and  _401
REMARK  166  A    between atoms: _401  and  _402
REMARK  167  A    between atoms: _402  and  _403
REMARK  168  A    between atoms: _405  and  _407
REMARK  169  A    between atoms: _407  and  _408
REMARK  170  A    between atoms: _407  and  _410
REMARK  171  A    between atoms: _410  and  _411
REMARK  172  A    between atoms: _414  and  _416
REMARK  173  A    between atoms: _416  and  _417
REMARK  174  A    between atoms: _419  and  _421
REMARK  175  A    between atoms: _421  and  _422
REMARK  176  A    between atoms: _424  and  _426
REMARK  177  A    between atoms: _426  and  _427
REMARK  178  A    between atoms: _426  and  _429
REMARK  179  A    between atoms: _429  and  _430
REMARK  180  A    between atoms: _433  and  _435
REMARK  181  A    between atoms: _435  and  _436
REMARK  182  A    between atoms: _438  and  _440
REMARK  183  A    between atoms: _440  and  _441
REMARK  184  A    between atoms: _443  and  _445
REMARK  185  A    between atoms: _445  and  _446
REMARK  186  A    between atoms: _445  and  _448
REMARK  187  A    between atoms: _448  and  _449
REMARK  188  A    between atoms: _455  and  _457
REMARK  189  A    between atoms: _457  and  _458
REMARK  190  A    between atoms: _457  and  _460
REMARK  191  A    between atoms: _460  and  _461
REMARK  192  A    between atoms: _464  and  _466
REMARK  193  A    between atoms: _466  and  _467
REMARK  194  A    between atoms: _466  and  _469
REMARK  195  A    between atoms: _472  and  _474
REMARK  196  A    between atoms: _474  and  _475
REMARK  197  A    between atoms: _474  and  _477
REMARK  198  A    between atoms: _477  and  _478
REMARK  199  A    between atoms: _481  and  _483
REMARK  200  A    between atoms: _483  and  _484
REMARK  201  A    between atoms: _483  and  _486
REMARK  202  A    between atoms: _486  and  _487
REMARK  203  A    between atoms: _491  and  _492
REMARK  204  A    between atoms: _497  and  _499
REMARK  205  A    between atoms: _499  and  _500
REMARK  206  A    between atoms: _499  and  _502
REMARK  207  A    between atoms: _505  and  _507
REMARK  208  A    between atoms: _507  and  _508
REMARK  209  A    between atoms: _507  and  _510
REMARK  210  A    between atoms: _510  and  _511
REMARK  211  A    between atoms: _516  and  _518
REMARK  212  A    between atoms: _518  and  _519
REMARK  213  A    between atoms: _518  and  _521
REMARK  214  A    between atoms: _521  and  _522
REMARK  215  A    between atoms: _525  and  _527
REMARK  216  A    between atoms: _527  and  _528
REMARK  217  A    between atoms: _527  and  _530
REMARK  218  A    between atoms: _530  and  _531
REMARK  219  A    between atoms: _534  and  _536
REMARK  220  A    between atoms: _536  and  _537
REMARK  221  A    between atoms: _539  and  _541
REMARK  222  A    between atoms: _541  and  _542
REMARK  223  A    between atoms: _541  and  _544
REMARK  224  A    between atoms: _544  and  _545
REMARK  225  A    between atoms: _545  and  _546
REMARK  226  A    between atoms: _546  and  _547
REMARK  227  A    between atoms: _556  and  _558
REMARK  228  A    between atoms: _558  and  _559
REMARK  229  A    between atoms: _558  and  _561
REMARK  230  A    between atoms: _561  and  _562
REMARK                            x       y       z     vdW  Elec       q    Type
REMARK                         _______ _______ _______ _____ _____    ______ ____
ROOT
ATOM      1  O   HOH     1      -8.070  23.735  22.896  0.00  0.00    +0.000 OA
ENDROOT
TORSDOF 0
REMARK  Name = ../refined-set-2016/2pyn/2pyn_pocket.pdb
REMARK  230 active torsions:
REMARK  status: ('A' for Active; 'I' for Inactive)
REMARK    1  A    between atoms: _1  and  _3
REMARK    2  A    between atoms: _3  and  _4
REMARK    3  A    between atoms: _3  and  _6
REMARK    4  A    between atoms: _6  and  _7
REMARK    5  A    between atoms: _7  and  _8
REMARK    6  A    between atoms: _8  and  _9
REMARK    7  A    between atoms: _18  and  _20
REMARK    8  A    between atoms: _20  and  _21
REMARK    9  A    between atoms: _20  and  _23
REMARK   10  A    between atoms: _23  and  _24
REMARK   11  A    between atoms: _27  and  _29
REMARK   12  A    between atoms: _29  and  _30
REMARK   13  A    between atoms: _29  and  _32
REMARK   14  A    between atoms: _32  and  _33
REMARK   15  A    between atoms: _36  and  _38
REMARK   16  A    between atoms: _38  and  _39
REMARK   17  A    between atoms: _38  and  _41
REMARK   18  A    between atoms: _41  and  _42
REMARK   19  A    between atoms: _45  and  _47
REMARK   20  A    between atoms: _47  and  _48
REMARK   21  A    between atoms: _47  and  _50
REMARK   22  A    between atoms: _50  and  _51
REMARK   23  A    between atoms: _54  and  _56
REMARK   24  A    between atoms: _56  and  _57
REMARK   25  A    between atoms: _59  and  _61
REMARK   26  A    between atoms: _61  and  _62
REMARK   27  A    between atoms: _65  and  _67
REMARK   28  A    between atoms: _67  and  _68
REMARK   29  A    between atoms: _67  and  _70
REMARK   30  A    between atoms: _70  and  _71
REMARK   31  A    between atoms: _74  and  _76
REMARK   32  A    between atoms: _76  and  _77
REMARK   33  A    between atoms: _76  and  _79
REMARK   34  A    between atoms: _79  and  _80
REMARK   35  A    between atoms: _85  and  _87
REMARK   36  A    between atoms: _87  and  _88
REMARK   37  A    between atoms: _87  and  _90
REMARK   38  A    between atoms: _90  and  _91
REMARK   39  A    between atoms: _94  and  _96
REMARK   40  A    between atoms: _96  and  _97
REMARK   41  A    between atoms: _96  and  _99
REMARK   42  A    between atoms: _102  and  _104
REMARK   43  A    between atoms: _104  and  _105
REMARK   44  A    between atoms: _104  and  _107
REMARK   45  A    between atoms: _107  and  _108
REMARK   46  A    between atoms: _108  and  _109
REMARK   47  A    between atoms: _109  and  _110
REMARK   48  A    between atoms: _110  and  _111
REMARK   49  A    between atoms: _115  and  _117
REMARK   50  A    between atoms: _117  and  _118
REMARK   51  A    between atoms: _117  and  _120
REMARK   52  A    between atoms: _120  and  _121
REMARK   53  A    between atoms: _121  and  _122
REMARK   54  A    between atoms: _124  and  _126
REMARK   55  A    between atoms: _126  and  _127
REMARK   56  A    between atoms: _126  and  _129
REMARK   57  A    between atoms: _129  and  _130
REMARK   58  A    between atoms: _133  and  _135
REMARK   59  A    between atoms: _135  and  _136
REMARK   60  A    between atoms: _138  and  _140
REMARK   61  A    between atoms: _140  and  _141
REMARK   62  A    between atoms: _143  and  _145
REMARK   63  A    between atoms: _145  and  _146
REMARK   64  A    between atoms: _145  and  _148
REMARK   65  A    between atoms: _148  and  _149
REMARK   66  A    between atoms: _152  and  _154
REMARK   67  A    between atoms: _154  and  _155
REMARK   68  A    between atoms: _157  and  _159
REMARK   69  A    between atoms: _159  and  _160
REMARK   70  A    between atoms: _162  and  _164
REMARK   71  A    between atoms: _164  and  _165
REMARK   72  A    between atoms: _164  and  _167
REMARK   73  A    between atoms: _167  and  _168
REMARK   74  A    between atoms: _171  and  _173
REMARK   75  A    between atoms: _173  and  _174
REMARK   76  A    between atoms: _173  and  _176
REMARK   77  A    between atoms: _176  and  _177
REMARK   78  A    between atoms: _181  and  _182
REMARK   79  A    between atoms: _187  and  _189
REMARK   80  A    between atoms: _189  and  _190
REMARK   81  A    between atoms: _189  and  _192
REMARK   82  A    between atoms: _192  and  _193
REMARK   83  A    between atoms: _197  and  _198
REMARK   84  A    between atoms: _203  and  _205
REMARK   85  A    between atoms: _205  and  _206
REMARK   86  A    between atoms: _205  and  _208
REMARK   87  A    between atoms: _211  and  _213
REMARK   88  A    between atoms: _213  and  _214
REMARK   89  A    between atoms: _213  and  _216
REMARK   90  A    between atoms: _216  and  _217
REMARK   91  A    between atoms: _222  and  _224
REMARK   92  A    between atoms: _224  and  _225
REMARK   93  A    between atoms: _224  and  _227
REMARK   94  A    between atoms: _227  and  _228
REMARK   95  A    between atoms: _231  and  _233
REMARK   96  A    between atoms: _233  and  _234
REMARK   97  A    between atoms: _233  and  _236
REMARK   98  A    between atoms: _236  and  _237
REMARK   99  A    between atoms: _240  and  _242
REMARK  100  A    between atoms: _242  and  _243
REMARK  101  A    between atoms: _245  and  _247
REMARK  102  A    between atoms: _247  and  _248
REMARK  103  A    between atoms: _247  and  _250
REMARK  104  A    between atoms: _250  and  _251
REMARK  105  A    between atoms: _251  and  _252
REMARK  106  A    between atoms: _252  and  _253
REMARK  107  A    between atoms: _262  and  _264
REMARK  108  A    between atoms: _264  and  _265
REMARK  109  A    between atoms: _264  and  _267
REMARK  110  A    between atoms: _267  and  _268
REMARK  111  A    between atoms: _273  and  _275
REMARK  112  A    between atoms: _275  and  _276
REMARK  113  A    between atoms: _275  and  _278
REMARK  114  A    between atoms: _278  and  _279
REMARK  115  A    between atoms: _279  and  _280
REMARK  116  A    between atoms: _280  and  _281
REMARK  117  A    between atoms: _290  and  _292
REMARK  118  A    between atoms: _292  and  _293
REMARK  119  A    between atoms: _292  and  _295
REMARK  120  A    between atoms: _295  and  _296
REMARK  121  A    between atoms: _299  and  _301
REMARK  122  A    between atoms: _301  and  _302
REMARK  123  A    between atoms: _301  and  _304
REMARK  124  A    between atoms: _304  and  _305
REMARK  125  A    between atoms: _308  and  _310
REMARK  126  A    between atoms: _310  and  _311
REMARK  127  A    between atoms: _310  and  _313
REMARK  128  A    between atoms: _313  and  _314
REMARK  129  A    between atoms: _317  and  _319
REMARK  130  A    between atoms: _319  and  _320
REMARK  131  A    between atoms: _319  and  _322
REMARK  132  A    between atoms: _322  and  _323
REMARK  133  A    between atoms: _326  and  _328
REMARK  134  A    between atoms: _328  and  _329
REMARK  135  A    between atoms: _328  and  _331
REMARK  136  A    between atoms: _331  and  _332
REMARK  137  A    between atoms: _335  and  _337
REMARK  138  A    between atoms: _337  and  _338
REMARK  139  A    between atoms: _340  and  _342
REMARK  140  A    between atoms: _342  and  _343
REMARK  141  A    between atoms: _346  and  _348
REMARK  142  A    between atoms: _348  and  _349
REMARK  143  A    between atoms: _348  and  _351
REMARK  144  A    between atoms: _351  and  _352
REMARK  145  A    between atoms: _355  and  _357
REMARK  146  A    between atoms: _357  and  _358
REMARK  147  A    between atoms: _357  and  _360
REMARK  148  A    between atoms: _360  and  _361
REMARK  149  A    between atoms: _366  and  _368
REMARK  150  A    between atoms: _368  and  _369
REMARK  151  A    between atoms: _368  and  _371
REMARK  152  A    between atoms: _371  and  _372
REMARK  153  A    between atoms: _375  and  _377
REMARK  154  A    between atoms: _377  and  _378
REMARK  155  A    between atoms: _377  and  _380
REMARK  156  A    between atoms: _383  and  _385
REMARK  157  A    between atoms: _385  and  _386
REMARK  158  A    between atoms: _385  and  _388
REMARK  159  A    between atoms: _388  and  _389
REMARK  160  A    between atoms: _389  and  _390
REMARK  161  A    between atoms: _390  and  _391
REMARK  162  A    between atoms: _391  and  _392
REMARK  163  A    between atoms: _396  and  _398
REMARK  164  A    between atoms: _398  and  _399
REMARK  165  A    between atoms: _398  and  _401
REMARK  166  A    between atoms: _401  and  _402
REMARK  167  A    between atoms: _402  and  _403
REMARK  168  A    between atoms: _405  and  _407
REMARK  169  A    between atoms: _407  and  _408
REMARK  170  A    between atoms: _407  and  _410
REMARK  171  A    between atoms: _410  and  _411
REMARK  172  A    between atoms: _414  and  _416
REMARK  173  A    between atoms: _416  and  _417
REMARK  174  A    between atoms: _419  and  _421
REMARK  175  A    between atoms: _421  and  _422
REMARK  176  A    between atoms: _424  and  _426
REMARK  177  A    between atoms: _426  and  _427
REMARK  178  A    between atoms: _426  and  _429
REMARK  179  A    between atoms: _429  and  _430
REMARK  180  A    between atoms: _433  and  _435
REMARK  181  A    between atoms: _435  and  _436
REMARK  182  A    between atoms: _438  and  _440
REMARK  183  A    between atoms: _440  and  _441
REMARK  184  A    between atoms: _443  and  _445
REMARK  185  A    between atoms: _445  and  _446
REMARK  186  A    between atoms: _445  and  _448
REMARK  187  A    between atoms: _448  and  _449
REMARK  188  A    between atoms: _455  and  _457
REMARK  189  A    between atoms: _457  and  _458
REMARK  190  A    between atoms: _457  and  _460
REMARK  191  A    between atoms: _460  and  _461
REMARK  192  A    between atoms: _464  and  _466
REMARK  193  A    between atoms: _466  and  _467
REMARK  194  A    between atoms: _466  and  _469
REMARK  195  A    between atoms: _472  and  _474
REMARK  196  A    between atoms: _474  and  _475
REMARK  197  A    between atoms: _474  and  _477
REMARK  198  A    between atoms: _477  and  _478
REMARK  199  A    between atoms: _481  and  _483
REMARK  200  A    between atoms: _483  and  _484
REMARK  201  A    between atoms: _483  and  _486
REMARK  202  A    between atoms: _486  and  _487
REMARK  203  A    between atoms: _491  and  _492
REMARK  204  A    between atoms: _497  and  _499
REMARK  205  A    between atoms: _499  and  _500
REMARK  206  A    between atoms: _499  and  _502
REMARK  207  A    between atoms: _505  and  _507
REMARK  208  A    between atoms: _507  and  _508
REMARK  209  A    between atoms: _507  and  _510
REMARK  210  A    between atoms: _510  and  _511
REMARK  211  A    between atoms: _516  and  _518
REMARK  212  A    between atoms: _518  and  _519
REMARK  213  A    between atoms: _518  and  _521
REMARK  214  A    between atoms: _521  and  _522
REMARK  215  A    between atoms: _525  and  _527
REMARK  216  A    between atoms: _527  and  _528
REMARK  217  A    between atoms: _527  and  _530
REMARK  218  A    between atoms: _530  and  _531
REMARK  219  A    between atoms: _534  and  _536
REMARK  220  A    between atoms: _536  and  _537
REMARK  221  A    between atoms: _539  and  _541
REMARK  222  A    between atoms: _541  and  _542
REMARK  223  A    between atoms: _541  and  _544
REMARK  224  A    between atoms: _544  and  _545
REMARK  225  A    between atoms: _545  and  _546
REMARK  226  A    between atoms: _546  and  _547
REMARK  227  A    between atoms: _556  and  _558
REMARK  228  A    between atoms: _558  and  _559
REMARK  229  A    between atoms: _558  and  _561
REMARK  230  A    between atoms: _561  and  _562
REMARK                            x       y       z     vdW  Elec       q    Type
REMARK                         _______ _______ _______ _____ _____    ______ ____
ROOT
ATOM      1  O   HOH     1     -10.149  18.946  13.195  0.00  0.00    +0.000 OA
ENDROOT
TORSDOF 0
REMARK  Name = ../refined-set-2016/2pyn/2pyn_pocket.pdb
REMARK  230 active torsions:
REMARK  status: ('A' for Active; 'I' for Inactive)
REMARK    1  A    between atoms: _1  and  _3
REMARK    2  A    between atoms: _3  and  _4
REMARK    3  A    between atoms: _3  and  _6
REMARK    4  A    between atoms: _6  and  _7
REMARK    5  A    between atoms: _7  and  _8
REMARK    6  A    between atoms: _8  and  _9
REMARK    7  A    between atoms: _18  and  _20
REMARK    8  A    between atoms: _20  and  _21
REMARK    9  A    between atoms: _20  and  _23
REMARK   10  A    between atoms: _23  and  _24
REMARK   11  A    between atoms: _27  and  _29
REMARK   12  A    between atoms: _29  and  _30
REMARK   13  A    between atoms: _29  and  _32
REMARK   14  A    between atoms: _32  and  _33
REMARK   15  A    between atoms: _36  and  _38
REMARK   16  A    between atoms: _38  and  _39
REMARK   17  A    between atoms: _38  and  _41
REMARK   18  A    between atoms: _41  and  _42
REMARK   19  A    between atoms: _45  and  _47
REMARK   20  A    between atoms: _47  and  _48
REMARK   21  A    between atoms: _47  and  _50
REMARK   22  A    between atoms: _50  and  _51
REMARK   23  A    between atoms: _54  and  _56
REMARK   24  A    between atoms: _56  and  _57
REMARK   25  A    between atoms: _59  and  _61
REMARK   26  A    between atoms: _61  and  _62
REMARK   27  A    between atoms: _65  and  _67
REMARK   28  A    between atoms: _67  and  _68
REMARK   29  A    between atoms: _67  and  _70
REMARK   30  A    between atoms: _70  and  _71
REMARK   31  A    between atoms: _74  and  _76
REMARK   32  A    between atoms: _76  and  _77
REMARK   33  A    between atoms: _76  and  _79
REMARK   34  A    between atoms: _79  and  _80
REMARK   35  A    between atoms: _85  and  _87
REMARK   36  A    between atoms: _87  and  _88
REMARK   37  A    between atoms: _87  and  _90
REMARK   38  A    between atoms: _90  and  _91
REMARK   39  A    between atoms: _94  and  _96
REMARK   40  A    between atoms: _96  and  _97
REMARK   41  A    between atoms: _96  and  _99
REMARK   42  A    between atoms: _102  and  _104
REMARK   43  A    between atoms: _104  and  _105
REMARK   44  A    between atoms: _104  and  _107
REMARK   45  A    between atoms: _107  and  _108
REMARK   46  A    between atoms: _108  and  _109
REMARK   47  A    between atoms: _109  and  _110
REMARK   48  A    between atoms: _110  and  _111
REMARK   49  A    between atoms: _115  and  _117
REMARK   50  A    between atoms: _117  and  _118
REMARK   51  A    between atoms: _117  and  _120
REMARK   52  A    between atoms: _120  and  _121
REMARK   53  A    between atoms: _121  and  _122
REMARK   54  A    between atoms: _124  and  _126
REMARK   55  A    between atoms: _126  and  _127
REMARK   56  A    between atoms: _126  and  _129
REMARK   57  A    between atoms: _129  and  _130
REMARK   58  A    between atoms: _133  and  _135
REMARK   59  A    between atoms: _135  and  _136
REMARK   60  A    between atoms: _138  and  _140
REMARK   61  A    between atoms: _140  and  _141
REMARK   62  A    between atoms: _143  and  _145
REMARK   63  A    between atoms: _145  and  _146
REMARK   64  A    between atoms: _145  and  _148
REMARK   65  A    between atoms: _148  and  _149
REMARK   66  A    between atoms: _152  and  _154
REMARK   67  A    between atoms: _154  and  _155
REMARK   68  A    between atoms: _157  and  _159
REMARK   69  A    between atoms: _159  and  _160
REMARK   70  A    between atoms: _162  and  _164
REMARK   71  A    between atoms: _164  and  _165
REMARK   72  A    between atoms: _164  and  _167
REMARK   73  A    between atoms: _167  and  _168
REMARK   74  A    between atoms: _171  and  _173
REMARK   75  A    between atoms: _173  and  _174
REMARK   76  A    between atoms: _173  and  _176
REMARK   77  A    between atoms: _176  and  _177
REMARK   78  A    between atoms: _181  and  _182
REMARK   79  A    between atoms: _187  and  _189
REMARK   80  A    between atoms: _189  and  _190
REMARK   81  A    between atoms: _189  and  _192
REMARK   82  A    between atoms: _192  and  _193
REMARK   83  A    between atoms: _197  and  _198
REMARK   84  A    between atoms: _203  and  _205
REMARK   85  A    between atoms: _205  and  _206
REMARK   86  A    between atoms: _205  and  _208
REMARK   87  A    between atoms: _211  and  _213
REMARK   88  A    between atoms: _213  and  _214
REMARK   89  A    between atoms: _213  and  _216
REMARK   90  A    between atoms: _216  and  _217
REMARK   91  A    between atoms: _222  and  _224
REMARK   92  A    between atoms: _224  and  _225
REMARK   93  A    between atoms: _224  and  _227
REMARK   94  A    between atoms: _227  and  _228
REMARK   95  A    between atoms: _231  and  _233
REMARK   96  A    between atoms: _233  and  _234
REMARK   97  A    between atoms: _233  and  _236
REMARK   98  A    between atoms: _236  and  _237
REMARK   99  A    between atoms: _240  and  _242
REMARK  100  A    between atoms: _242  and  _243
REMARK  101  A    between atoms: _245  and  _247
REMARK  102  A    between atoms: _247  and  _248
REMARK  103  A    between atoms: _247  and  _250
REMARK  104  A    between atoms: _250  and  _251
REMARK  105  A    between atoms: _251  and  _252
REMARK  106  A    between atoms: _252  and  _253
REMARK  107  A    between atoms: _262  and  _264
REMARK  108  A    between atoms: _264  and  _265
REMARK  109  A    between atoms: _264  and  _267
REMARK  110  A    between atoms: _267  and  _268
REMARK  111  A    between atoms: _273  and  _275
REMARK  112  A    between atoms: _275  and  _276
REMARK  113  A    between atoms: _275  and  _278
REMARK  114  A    between atoms: _278  and  _279
REMARK  115  A    between atoms: _279  and  _280
REMARK  116  A    between atoms: _280  and  _281
REMARK  117  A    between atoms: _290  and  _292
REMARK  118  A    between atoms: _292  and  _293
REMARK  119  A    between atoms: _292  and  _295
REMARK  120  A    between atoms: _295  and  _296
REMARK  121  A    between atoms: _299  and  _301
REMARK  122  A    between atoms: _301  and  _302
REMARK  123  A    between atoms: _301  and  _304
REMARK  124  A    between atoms: _304  and  _305
REMARK  125  A    between atoms: _308  and  _310
REMARK  126  A    between atoms: _310  and  _311
REMARK  127  A    between atoms: _310  and  _313
REMARK  128  A    between atoms: _313  and  _314
REMARK  129  A    between atoms: _317  and  _319
REMARK  130  A    between atoms: _319  and  _320
REMARK  131  A    between atoms: _319  and  _322
REMARK  132  A    between atoms: _322  and  _323
REMARK  133  A    between atoms: _326  and  _328
REMARK  134  A    between atoms: _328  and  _329
REMARK  135  A    between atoms: _328  and  _331
REMARK  136  A    between atoms: _331  and  _332
REMARK  137  A    between atoms: _335  and  _337
REMARK  138  A    between atoms: _337  and  _338
REMARK  139  A    between atoms: _340  and  _342
REMARK  140  A    between atoms: _342  and  _343
REMARK  141  A    between atoms: _346  and  _348
REMARK  142  A    between atoms: _348  and  _349
REMARK  143  A    between atoms: _348  and  _351
REMARK  144  A    between atoms: _351  and  _352
REMARK  145  A    between atoms: _355  and  _357
REMARK  146  A    between atoms: _357  and  _358
REMARK  147  A    between atoms: _357  and  _360
REMARK  148  A    between atoms: _360  and  _361
REMARK  149  A    between atoms: _366  and  _368
REMARK  150  A    between atoms: _368  and  _369
REMARK  151  A    between atoms: _368  and  _371
REMARK  152  A    between atoms: _371  and  _372
REMARK  153  A    between atoms: _375  and  _377
REMARK  154  A    between atoms: _377  and  _378
REMARK  155  A    between atoms: _377  and  _380
REMARK  156  A    between atoms: _383  and  _385
REMARK  157  A    between atoms: _385  and  _386
REMARK  158  A    between atoms: _385  and  _388
REMARK  159  A    between atoms: _388  and  _389
REMARK  160  A    between atoms: _389  and  _390
REMARK  161  A    between atoms: _390  and  _391
REMARK  162  A    between atoms: _391  and  _392
REMARK  163  A    between atoms: _396  and  _398
REMARK  164  A    between atoms: _398  and  _399
REMARK  165  A    between atoms: _398  and  _401
REMARK  166  A    between atoms: _401  and  _402
REMARK  167  A    between atoms: _402  and  _403
REMARK  168  A    between atoms: _405  and  _407
REMARK  169  A    between atoms: _407  and  _408
REMARK  170  A    between atoms: _407  and  _410
REMARK  171  A    between atoms: _410  and  _411
REMARK  172  A    between atoms: _414  and  _416
REMARK  173  A    between atoms: _416  and  _417
REMARK  174  A    between atoms: _419  and  _421
REMARK  175  A    between atoms: _421  and  _422
REMARK  176  A    between atoms: _424  and  _426
REMARK  177  A    between atoms: _426  and  _427
REMARK  178  A    between atoms: _426  and  _429
REMARK  179  A    between atoms: _429  and  _430
REMARK  180  A    between atoms: _433  and  _435
REMARK  181  A    between atoms: _435  and  _436
REMARK  182  A    between atoms: _438  and  _440
REMARK  183  A    between atoms: _440  and  _441
REMARK  184  A    between atoms: _443  and  _445
REMARK  185  A    between atoms: _445  and  _446
REMARK  186  A    between atoms: _445  and  _448
REMARK  187  A    between atoms: _448  and  _449
REMARK  188  A    between atoms: _455  and  _457
REMARK  189  A    between atoms: _457  and  _458
REMARK  190  A    between atoms: _457  and  _460
REMARK  191  A    between atoms: _460  and  _461
REMARK  192  A    between atoms: _464  and  _466
REMARK  193  A    between atoms: _466  and  _467
REMARK  194  A    between atoms: _466  and  _469
REMARK  195  A    between atoms: _472  and  _474
REMARK  196  A    between atoms: _474  and  _475
REMARK  197  A    between atoms: _474  and  _477
REMARK  198  A    between atoms: _477  and  _478
REMARK  199  A    between atoms: _481  and  _483
REMARK  200  A    between atoms: _483  and  _484
REMARK  201  A    between atoms: _483  and  _486
REMARK  202  A    between atoms: _486  and  _487
REMARK  203  A    between atoms: _491  and  _492
REMARK  204  A    between atoms: _497  and  _499
REMARK  205  A    between atoms: _499  and  _500
REMARK  206  A    between atoms: _499  and  _502
REMARK  207  A    between atoms: _505  and  _507
REMARK  208  A    between atoms: _507  and  _508
REMARK  209  A    between atoms: _507  and  _510
REMARK  210  A    between atoms: _510  and  _511
REMARK  211  A    between atoms: _516  and  _518
REMARK  212  A    between atoms: _518  and  _519
REMARK  213  A    between atoms: _518  and  _521
REMARK  214  A    between atoms: _521  and  _522
REMARK  215  A    between atoms: _525  and  _527
REMARK  216  A    between atoms: _527  and  _528
REMARK  217  A    between atoms: _527  and  _530
REMARK  218  A    between atoms: _530  and  _531
REMARK  219  A    between atoms: _534  and  _536
REMARK  220  A    between atoms: _536  and  _537
REMARK  221  A    between atoms: _539  and  _541
REMARK  222  A    between atoms: _541  and  _542
REMARK  223  A    between atoms: _541  and  _544
REMARK  224  A    between atoms: _544  and  _545
REMARK  225  A    between atoms: _545  and  _546
REMARK  226  A    between atoms: _546  and  _547
REMARK  227  A    between atoms: _556  and  _558
REMARK  228  A    between atoms: _558  and  _559
REMARK  229  A    between atoms: _558  and  _561
REMARK  230  A    between atoms: _561  and  _562
REMARK                            x       y       z     vdW  Elec       q    Type
REMARK                         _______ _______ _______ _____ _____    ______ ____
ROOT
ATOM      1  O   HOH     1      -6.141  21.668  23.167  0.00  0.00    +0.000 OA
ENDROOT
TORSDOF 0
REMARK  Name = ../refined-set-2016/2pyn/2pyn_pocket.pdb
REMARK  230 active torsions:
REMARK  status: ('A' for Active; 'I' for Inactive)
REMARK    1  A    between atoms: _1  and  _3
REMARK    2  A    between atoms: _3  and  _4
REMARK    3  A    between atoms: _3  and  _6
REMARK    4  A    between atoms: _6  and  _7
REMARK    5  A    between atoms: _7  and  _8
REMARK    6  A    between atoms: _8  and  _9
REMARK    7  A    between atoms: _18  and  _20
REMARK    8  A    between atoms: _20  and  _21
REMARK    9  A    between atoms: _20  and  _23
REMARK   10  A    between atoms: _23  and  _24
REMARK   11  A    between atoms: _27  and  _29
REMARK   12  A    between atoms: _29  and  _30
REMARK   13  A    between atoms: _29  and  _32
REMARK   14  A    between atoms: _32  and  _33
REMARK   15  A    between atoms: _36  and  _38
REMARK   16  A    between atoms: _38  and  _39
REMARK   17  A    between atoms: _38  and  _41
REMARK   18  A    between atoms: _41  and  _42
REMARK   19  A    between atoms: _45  and  _47
REMARK   20  A    between atoms: _47  and  _48
REMARK   21  A    between atoms: _47  and  _50
REMARK   22  A    between atoms: _50  and  _51
REMARK   23  A    between atoms: _54  and  _56
REMARK   24  A    between atoms: _56  and  _57
REMARK   25  A    between atoms: _59  and  _61
REMARK   26  A    between atoms: _61  and  _62
REMARK   27  A    between atoms: _65  and  _67
REMARK   28  A    between atoms: _67  and  _68
REMARK   29  A    between atoms: _67  and  _70
REMARK   30  A    between atoms: _70  and  _71
REMARK   31  A    between atoms: _74  and  _76
REMARK   32  A    between atoms: _76  and  _77
REMARK   33  A    between atoms: _76  and  _79
REMARK   34  A    between atoms: _79  and  _80
REMARK   35  A    between atoms: _85  and  _87
REMARK   36  A    between atoms: _87  and  _88
REMARK   37  A    between atoms: _87  and  _90
REMARK   38  A    between atoms: _90  and  _91
REMARK   39  A    between atoms: _94  and  _96
REMARK   40  A    between atoms: _96  and  _97
REMARK   41  A    between atoms: _96  and  _99
REMARK   42  A    between atoms: _102  and  _104
REMARK   43  A    between atoms: _104  and  _105
REMARK   44  A    between atoms: _104  and  _107
REMARK   45  A    between atoms: _107  and  _108
REMARK   46  A    between atoms: _108  and  _109
REMARK   47  A    between atoms: _109  and  _110
REMARK   48  A    between atoms: _110  and  _111
REMARK   49  A    between atoms: _115  and  _117
REMARK   50  A    between atoms: _117  and  _118
REMARK   51  A    between atoms: _117  and  _120
REMARK   52  A    between atoms: _120  and  _121
REMARK   53  A    between atoms: _121  and  _122
REMARK   54  A    between atoms: _124  and  _126
REMARK   55  A    between atoms: _126  and  _127
REMARK   56  A    between atoms: _126  and  _129
REMARK   57  A    between atoms: _129  and  _130
REMARK   58  A    between atoms: _133  and  _135
REMARK   59  A    between atoms: _135  and  _136
REMARK   60  A    between atoms: _138  and  _140
REMARK   61  A    between atoms: _140  and  _141
REMARK   62  A    between atoms: _143  and  _145
REMARK   63  A    between atoms: _145  and  _146
REMARK   64  A    between atoms: _145  and  _148
REMARK   65  A    between atoms: _148  and  _149
REMARK   66  A    between atoms: _152  and  _154
REMARK   67  A    between atoms: _154  and  _155
REMARK   68  A    between atoms: _157  and  _159
REMARK   69  A    between atoms: _159  and  _160
REMARK   70  A    between atoms: _162  and  _164
REMARK   71  A    between atoms: _164  and  _165
REMARK   72  A    between atoms: _164  and  _167
REMARK   73  A    between atoms: _167  and  _168
REMARK   74  A    between atoms: _171  and  _173
REMARK   75  A    between atoms: _173  and  _174
REMARK   76  A    between atoms: _173  and  _176
REMARK   77  A    between atoms: _176  and  _177
REMARK   78  A    between atoms: _181  and  _182
REMARK   79  A    between atoms: _187  and  _189
REMARK   80  A    between atoms: _189  and  _190
REMARK   81  A    between atoms: _189  and  _192
REMARK   82  A    between atoms: _192  and  _193
REMARK   83  A    between atoms: _197  and  _198
REMARK   84  A    between atoms: _203  and  _205
REMARK   85  A    between atoms: _205  and  _206
REMARK   86  A    between atoms: _205  and  _208
REMARK   87  A    between atoms: _211  and  _213
REMARK   88  A    between atoms: _213  and  _214
REMARK   89  A    between atoms: _213  and  _216
REMARK   90  A    between atoms: _216  and  _217
REMARK   91  A    between atoms: _222  and  _224
REMARK   92  A    between atoms: _224  and  _225
REMARK   93  A    between atoms: _224  and  _227
REMARK   94  A    between atoms: _227  and  _228
REMARK   95  A    between atoms: _231  and  _233
REMARK   96  A    between atoms: _233  and  _234
REMARK   97  A    between atoms: _233  and  _236
REMARK   98  A    between atoms: _236  and  _237
REMARK   99  A    between atoms: _240  and  _242
REMARK  100  A    between atoms: _242  and  _243
REMARK  101  A    between atoms: _245  and  _247
REMARK  102  A    between atoms: _247  and  _248
REMARK  103  A    between atoms: _247  and  _250
REMARK  104  A    between atoms: _250  and  _251
REMARK  105  A    between atoms: _251  and  _252
REMARK  106  A    between atoms: _252  and  _253
REMARK  107  A    between atoms: _262  and  _264
REMARK  108  A    between atoms: _264  and  _265
REMARK  109  A    between atoms: _264  and  _267
REMARK  110  A    between atoms: _267  and  _268
REMARK  111  A    between atoms: _273  and  _275
REMARK  112  A    between atoms: _275  and  _276
REMARK  113  A    between atoms: _275  and  _278
REMARK  114  A    between atoms: _278  and  _279
REMARK  115  A    between atoms: _279  and  _280
REMARK  116  A    between atoms: _280  and  _281
REMARK  117  A    between atoms: _290  and  _292
REMARK  118  A    between atoms: _292  and  _293
REMARK  119  A    between atoms: _292  and  _295
REMARK  120  A    between atoms: _295  and  _296
REMARK  121  A    between atoms: _299  and  _301
REMARK  122  A    between atoms: _301  and  _302
REMARK  123  A    between atoms: _301  and  _304
REMARK  124  A    between atoms: _304  and  _305
REMARK  125  A    between atoms: _308  and  _310
REMARK  126  A    between atoms: _310  and  _311
REMARK  127  A    between atoms: _310  and  _313
REMARK  128  A    between atoms: _313  and  _314
REMARK  129  A    between atoms: _317  and  _319
REMARK  130  A    between atoms: _319  and  _320
REMARK  131  A    between atoms: _319  and  _322
REMARK  132  A    between atoms: _322  and  _323
REMARK  133  A    between atoms: _326  and  _328
REMARK  134  A    between atoms: _328  and  _329
REMARK  135  A    between atoms: _328  and  _331
REMARK  136  A    between atoms: _331  and  _332
REMARK  137  A    between atoms: _335  and  _337
REMARK  138  A    between atoms: _337  and  _338
REMARK  139  A    between atoms: _340  and  _342
REMARK  140  A    between atoms: _342  and  _343
REMARK  141  A    between atoms: _346  and  _348
REMARK  142  A    between atoms: _348  and  _349
REMARK  143  A    between atoms: _348  and  _351
REMARK  144  A    between atoms: _351  and  _352
REMARK  145  A    between atoms: _355  and  _357
REMARK  146  A    between atoms: _357  and  _358
REMARK  147  A    between atoms: _357  and  _360
REMARK  148  A    between atoms: _360  and  _361
REMARK  149  A    between atoms: _366  and  _368
REMARK  150  A    between atoms: _368  and  _369
REMARK  151  A    between atoms: _368  and  _371
REMARK  152  A    between atoms: _371  and  _372
REMARK  153  A    between atoms: _375  and  _377
REMARK  154  A    between atoms: _377  and  _378
REMARK  155  A    between atoms: _377  and  _380
REMARK  156  A    between atoms: _383  and  _385
REMARK  157  A    between atoms: _385  and  _386
REMARK  158  A    between atoms: _385  and  _388
REMARK  159  A    between atoms: _388  and  _389
REMARK  160  A    between atoms: _389  and  _390
REMARK  161  A    between atoms: _390  and  _391
REMARK  162  A    between atoms: _391  and  _392
REMARK  163  A    between atoms: _396  and  _398
REMARK  164  A    between atoms: _398  and  _399
REMARK  165  A    between atoms: _398  and  _401
REMARK  166  A    between atoms: _401  and  _402
REMARK  167  A    between atoms: _402  and  _403
REMARK  168  A    between atoms: _405  and  _407
REMARK  169  A    between atoms: _407  and  _408
REMARK  170  A    between atoms: _407  and  _410
REMARK  171  A    between atoms: _410  and  _411
REMARK  172  A    between atoms: _414  and  _416
REMARK  173  A    between atoms: _416  and  _417
REMARK  174  A    between atoms: _419  and  _421
REMARK  175  A    between atoms: _421  and  _422
REMARK  176  A    between atoms: _424  and  _426
REMARK  177  A    between atoms: _426  and  _427
REMARK  178  A    between atoms: _426  and  _429
REMARK  179  A    between atoms: _429  and  _430
REMARK  180  A    between atoms: _433  and  _435
REMARK  181  A    between atoms: _435  and  _436
REMARK  182  A    between atoms: _438  and  _440
REMARK  183  A    between atoms: _440  and  _441
REMARK  184  A    between atoms: _443  and  _445
REMARK  185  A    between atoms: _445  and  _446
REMARK  186  A    between atoms: _445  and  _448
REMARK  187  A    between atoms: _448  and  _449
REMARK  188  A    between atoms: _455  and  _457
REMARK  189  A    between atoms: _457  and  _458
REMARK  190  A    between atoms: _457  and  _460
REMARK  191  A    between atoms: _460  and  _461
REMARK  192  A    between atoms: _464  and  _466
REMARK  193  A    between atoms: _466  and  _467
REMARK  194  A    between atoms: _466  and  _469
REMARK  195  A    between atoms: _472  and  _474
REMARK  196  A    between atoms: _474  and  _475
REMARK  197  A    between atoms: _474  and  _477
REMARK  198  A    between atoms: _477  and  _478
REMARK  199  A    between atoms: _481  and  _483
REMARK  200  A    between atoms: _483  and  _484
REMARK  201  A    between atoms: _483  and  _486
REMARK  202  A    between atoms: _486  and  _487
REMARK  203  A    between atoms: _491  and  _492
REMARK  204  A    between atoms: _497  and  _499
REMARK  205  A    between atoms: _499  and  _500
REMARK  206  A    between atoms: _499  and  _502
REMARK  207  A    between atoms: _505  and  _507
REMARK  208  A    between atoms: _507  and  _508
REMARK  209  A    between atoms: _507  and  _510
REMARK  210  A    between atoms: _510  and  _511
REMARK  211  A    between atoms: _516  and  _518
REMARK  212  A    between atoms: _518  and  _519
REMARK  213  A    between atoms: _518  and  _521
REMARK  214  A    between atoms: _521  and  _522
REMARK  215  A    between atoms: _525  and  _527
REMARK  216  A    between atoms: _527  and  _528
REMARK  217  A    between atoms: _527  and  _530
REMARK  218  A    between atoms: _530  and  _531
REMARK  219  A    between atoms: _534  and  _536
REMARK  220  A    between atoms: _536  and  _537
REMARK  221  A    between atoms: _539  and  _541
REMARK  222  A    between atoms: _541  and  _542
REMARK  223  A    between atoms: _541  and  _544
REMARK  224  A    between atoms: _544  and  _545
REMARK  225  A    between atoms: _545  and  _546
REMARK  226  A    between atoms: _546  and  _547
REMARK  227  A    between atoms: _556  and  _558
REMARK  228  A    between atoms: _558  and  _559
REMARK  229  A    between atoms: _558  and  _561
REMARK  230  A    between atoms: _561  and  _562
REMARK                            x       y       z     vdW  Elec       q    Type
REMARK                         _______ _______ _______ _____ _____    ______ ____
ROOT
ATOM      1  O   HOH     1      -4.849  16.792  16.046  0.00  0.00    +0.000 OA
ENDROOT
TORSDOF 0
REMARK  Name = ../refined-set-2016/2pyn/2pyn_pocket.pdb
REMARK  230 active torsions:
REMARK  status: ('A' for Active; 'I' for Inactive)
REMARK    1  A    between atoms: _1  and  _3
REMARK    2  A    between atoms: _3  and  _4
REMARK    3  A    between atoms: _3  and  _6
REMARK    4  A    between atoms: _6  and  _7
REMARK    5  A    between atoms: _7  and  _8
REMARK    6  A    between atoms: _8  and  _9
REMARK    7  A    between atoms: _18  and  _20
REMARK    8  A    between atoms: _20  and  _21
REMARK    9  A    between atoms: _20  and  _23
REMARK   10  A    between atoms: _23  and  _24
REMARK   11  A    between atoms: _27  and  _29
REMARK   12  A    between atoms: _29  and  _30
REMARK   13  A    between atoms: _29  and  _32
REMARK   14  A    between atoms: _32  and  _33
REMARK   15  A    between atoms: _36  and  _38
REMARK   16  A    between atoms: _38  and  _39
REMARK   17  A    between atoms: _38  and  _41
REMARK   18  A    between atoms: _41  and  _42
REMARK   19  A    between atoms: _45  and  _47
REMARK   20  A    between atoms: _47  and  _48
REMARK   21  A    between atoms: _47  and  _50
REMARK   22  A    between atoms: _50  and  _51
REMARK   23  A    between atoms: _54  and  _56
REMARK   24  A    between atoms: _56  and  _57
REMARK   25  A    between atoms: _59  and  _61
REMARK   26  A    between atoms: _61  and  _62
REMARK   27  A    between atoms: _65  and  _67
REMARK   28  A    between atoms: _67  and  _68
REMARK   29  A    between atoms: _67  and  _70
REMARK   30  A    between atoms: _70  and  _71
REMARK   31  A    between atoms: _74  and  _76
REMARK   32  A    between atoms: _76  and  _77
REMARK   33  A    between atoms: _76  and  _79
REMARK   34  A    between atoms: _79  and  _80
REMARK   35  A    between atoms: _85  and  _87
REMARK   36  A    between atoms: _87  and  _88
REMARK   37  A    between atoms: _87  and  _90
REMARK   38  A    between atoms: _90  and  _91
REMARK   39  A    between atoms: _94  and  _96
REMARK   40  A    between atoms: _96  and  _97
REMARK   41  A    between atoms: _96  and  _99
REMARK   42  A    between atoms: _102  and  _104
REMARK   43  A    between atoms: _104  and  _105
REMARK   44  A    between atoms: _104  and  _107
REMARK   45  A    between atoms: _107  and  _108
REMARK   46  A    between atoms: _108  and  _109
REMARK   47  A    between atoms: _109  and  _110
REMARK   48  A    between atoms: _110  and  _111
REMARK   49  A    between atoms: _115  and  _117
REMARK   50  A    between atoms: _117  and  _118
REMARK   51  A    between atoms: _117  and  _120
REMARK   52  A    between atoms: _120  and  _121
REMARK   53  A    between atoms: _121  and  _122
REMARK   54  A    between atoms: _124  and  _126
REMARK   55  A    between atoms: _126  and  _127
REMARK   56  A    between atoms: _126  and  _129
REMARK   57  A    between atoms: _129  and  _130
REMARK   58  A    between atoms: _133  and  _135
REMARK   59  A    between atoms: _135  and  _136
REMARK   60  A    between atoms: _138  and  _140
REMARK   61  A    between atoms: _140  and  _141
REMARK   62  A    between atoms: _143  and  _145
REMARK   63  A    between atoms: _145  and  _146
REMARK   64  A    between atoms: _145  and  _148
REMARK   65  A    between atoms: _148  and  _149
REMARK   66  A    between atoms: _152  and  _154
REMARK   67  A    between atoms: _154  and  _155
REMARK   68  A    between atoms: _157  and  _159
REMARK   69  A    between atoms: _159  and  _160
REMARK   70  A    between atoms: _162  and  _164
REMARK   71  A    between atoms: _164  and  _165
REMARK   72  A    between atoms: _164  and  _167
REMARK   73  A    between atoms: _167  and  _168
REMARK   74  A    between atoms: _171  and  _173
REMARK   75  A    between atoms: _173  and  _174
REMARK   76  A    between atoms: _173  and  _176
REMARK   77  A    between atoms: _176  and  _177
REMARK   78  A    between atoms: _181  and  _182
REMARK   79  A    between atoms: _187  and  _189
REMARK   80  A    between atoms: _189  and  _190
REMARK   81  A    between atoms: _189  and  _192
REMARK   82  A    between atoms: _192  and  _193
REMARK   83  A    between atoms: _197  and  _198
REMARK   84  A    between atoms: _203  and  _205
REMARK   85  A    between atoms: _205  and  _206
REMARK   86  A    between atoms: _205  and  _208
REMARK   87  A    between atoms: _211  and  _213
REMARK   88  A    between atoms: _213  and  _214
REMARK   89  A    between atoms: _213  and  _216
REMARK   90  A    between atoms: _216  and  _217
REMARK   91  A    between atoms: _222  and  _224
REMARK   92  A    between atoms: _224  and  _225
REMARK   93  A    between atoms: _224  and  _227
REMARK   94  A    between atoms: _227  and  _228
REMARK   95  A    between atoms: _231  and  _233
REMARK   96  A    between atoms: _233  and  _234
REMARK   97  A    between atoms: _233  and  _236
REMARK   98  A    between atoms: _236  and  _237
REMARK   99  A    between atoms: _240  and  _242
REMARK  100  A    between atoms: _242  and  _243
REMARK  101  A    between atoms: _245  and  _247
REMARK  102  A    between atoms: _247  and  _248
REMARK  103  A    between atoms: _247  and  _250
REMARK  104  A    between atoms: _250  and  _251
REMARK  105  A    between atoms: _251  and  _252
REMARK  106  A    between atoms: _252  and  _253
REMARK  107  A    between atoms: _262  and  _264
REMARK  108  A    between atoms: _264  and  _265
REMARK  109  A    between atoms: _264  and  _267
REMARK  110  A    between atoms: _267  and  _268
REMARK  111  A    between atoms: _273  and  _275
REMARK  112  A    between atoms: _275  and  _276
REMARK  113  A    between atoms: _275  and  _278
REMARK  114  A    between atoms: _278  and  _279
REMARK  115  A    between atoms: _279  and  _280
REMARK  116  A    between atoms: _280  and  _281
REMARK  117  A    between atoms: _290  and  _292
REMARK  118  A    between atoms: _292  and  _293
REMARK  119  A    between atoms: _292  and  _295
REMARK  120  A    between atoms: _295  and  _296
REMARK  121  A    between atoms: _299  and  _301
REMARK  122  A    between atoms: _301  and  _302
REMARK  123  A    between atoms: _301  and  _304
REMARK  124  A    between atoms: _304  and  _305
REMARK  125  A    between atoms: _308  and  _310
REMARK  126  A    between atoms: _310  and  _311
REMARK  127  A    between atoms: _310  and  _313
REMARK  128  A    between atoms: _313  and  _314
REMARK  129  A    between atoms: _317  and  _319
REMARK  130  A    between atoms: _319  and  _320
REMARK  131  A    between atoms: _319  and  _322
REMARK  132  A    between atoms: _322  and  _323
REMARK  133  A    between atoms: _326  and  _328
REMARK  134  A    between atoms: _328  and  _329
REMARK  135  A    between atoms: _328  and  _331
REMARK  136  A    between atoms: _331  and  _332
REMARK  137  A    between atoms: _335  and  _337
REMARK  138  A    between atoms: _337  and  _338
REMARK  139  A    between atoms: _340  and  _342
REMARK  140  A    between atoms: _342  and  _343
REMARK  141  A    between atoms: _346  and  _348
REMARK  142  A    between atoms: _348  and  _349
REMARK  143  A    between atoms: _348  and  _351
REMARK  144  A    between atoms: _351  and  _352
REMARK  145  A    between atoms: _355  and  _357
REMARK  146  A    between atoms: _357  and  _358
REMARK  147  A    between atoms: _357  and  _360
REMARK  148  A    between atoms: _360  and  _361
REMARK  149  A    between atoms: _366  and  _368
REMARK  150  A    between atoms: _368  and  _369
REMARK  151  A    between atoms: _368  and  _371
REMARK  152  A    between atoms: _371  and  _372
REMARK  153  A    between atoms: _375  and  _377
REMARK  154  A    between atoms: _377  and  _378
REMARK  155  A    between atoms: _377  and  _380
REMARK  156  A    between atoms: _383  and  _385
REMARK  157  A    between atoms: _385  and  _386
REMARK  158  A    between atoms: _385  and  _388
REMARK  159  A    between atoms: _388  and  _389
REMARK  160  A    between atoms: _389  and  _390
REMARK  161  A    between atoms: _390  and  _391
REMARK  162  A    between atoms: _391  and  _392
REMARK  163  A    between atoms: _396  and  _398
REMARK  164  A    between atoms: _398  and  _399
REMARK  165  A    between atoms: _398  and  _401
REMARK  166  A    between atoms: _401  and  _402
REMARK  167  A    between atoms: _402  and  _403
REMARK  168  A    between atoms: _405  and  _407
REMARK  169  A    between atoms: _407  and  _408
REMARK  170  A    between atoms: _407  and  _410
REMARK  171  A    between atoms: _410  and  _411
REMARK  172  A    between atoms: _414  and  _416
REMARK  173  A    between atoms: _416  and  _417
REMARK  174  A    between atoms: _419  and  _421
REMARK  175  A    between atoms: _421  and  _422
REMARK  176  A    between atoms: _424  and  _426
REMARK  177  A    between atoms: _426  and  _427
REMARK  178  A    between atoms: _426  and  _429
REMARK  179  A    between atoms: _429  and  _430
REMARK  180  A    between atoms: _433  and  _435
REMARK  181  A    between atoms: _435  and  _436
REMARK  182  A    between atoms: _438  and  _440
REMARK  183  A    between atoms: _440  and  _441
REMARK  184  A    between atoms: _443  and  _445
REMARK  185  A    between atoms: _445  and  _446
REMARK  186  A    between atoms: _445  and  _448
REMARK  187  A    between atoms: _448  and  _449
REMARK  188  A    between atoms: _455  and  _457
REMARK  189  A    between atoms: _457  and  _458
REMARK  190  A    between atoms: _457  and  _460
REMARK  191  A    between atoms: _460  and  _461
REMARK  192  A    between atoms: _464  and  _466
REMARK  193  A    between atoms: _466  and  _467
REMARK  194  A    between atoms: _466  and  _469
REMARK  195  A    between atoms: _472  and  _474
REMARK  196  A    between atoms: _474  and  _475
REMARK  197  A    between atoms: _474  and  _477
REMARK  198  A    between atoms: _477  and  _478
REMARK  199  A    between atoms: _481  and  _483
REMARK  200  A    between atoms: _483  and  _484
REMARK  201  A    between atoms: _483  and  _486
REMARK  202  A    between atoms: _486  and  _487
REMARK  203  A    between atoms: _491  and  _492
REMARK  204  A    between atoms: _497  and  _499
REMARK  205  A    between atoms: _499  and  _500
REMARK  206  A    between atoms: _499  and  _502
REMARK  207  A    between atoms: _505  and  _507
REMARK  208  A    between atoms: _507  and  _508
REMARK  209  A    between atoms: _507  and  _510
REMARK  210  A    between atoms: _510  and  _511
REMARK  211  A    between atoms: _516  and  _518
REMARK  212  A    between atoms: _518  and  _519
REMARK  213  A    between atoms: _518  and  _521
REMARK  214  A    between atoms: _521  and  _522
REMARK  215  A    between atoms: _525  and  _527
REMARK  216  A    between atoms: _527  and  _528
REMARK  217  A    between atoms: _527  and  _530
REMARK  218  A    between atoms: _530  and  _531
REMARK  219  A    between atoms: _534  and  _536
REMARK  220  A    between atoms: _536  and  _537
REMARK  221  A    between atoms: _539  and  _541
REMARK  222  A    between atoms: _541  and  _542
REMARK  223  A    between atoms: _541  and  _544
REMARK  224  A    between atoms: _544  and  _545
REMARK  225  A    between atoms: _545  and  _546
REMARK  226  A    between atoms: _546  and  _547
REMARK  227  A    between atoms: _556  and  _558
REMARK  228  A    between atoms: _558  and  _559
REMARK  229  A    between atoms: _558  and  _561
REMARK  230  A    between atoms: _561  and  _562
REMARK                            x       y       z     vdW  Elec       q    Type
REMARK                         _______ _______ _______ _____ _____    ______ ____
ROOT
ATOM      1  O   HOH     1      -7.728  13.360  27.356  0.00  0.00    +0.000 OA
ENDROOT
TORSDOF 0
REMARK  Name = ../refined-set-2016/2pyn/2pyn_pocket.pdb
REMARK  230 active torsions:
REMARK  status: ('A' for Active; 'I' for Inactive)
REMARK    1  A    between atoms: _1  and  _3
REMARK    2  A    between atoms: _3  and  _4
REMARK    3  A    between atoms: _3  and  _6
REMARK    4  A    between atoms: _6  and  _7
REMARK    5  A    between atoms: _7  and  _8
REMARK    6  A    between atoms: _8  and  _9
REMARK    7  A    between atoms: _18  and  _20
REMARK    8  A    between atoms: _20  and  _21
REMARK    9  A    between atoms: _20  and  _23
REMARK   10  A    between atoms: _23  and  _24
REMARK   11  A    between atoms: _27  and  _29
REMARK   12  A    between atoms: _29  and  _30
REMARK   13  A    between atoms: _29  and  _32
REMARK   14  A    between atoms: _32  and  _33
REMARK   15  A    between atoms: _36  and  _38
REMARK   16  A    between atoms: _38  and  _39
REMARK   17  A    between atoms: _38  and  _41
REMARK   18  A    between atoms: _41  and  _42
REMARK   19  A    between atoms: _45  and  _47
REMARK   20  A    between atoms: _47  and  _48
REMARK   21  A    between atoms: _47  and  _50
REMARK   22  A    between atoms: _50  and  _51
REMARK   23  A    between atoms: _54  and  _56
REMARK   24  A    between atoms: _56  and  _57
REMARK   25  A    between atoms: _59  and  _61
REMARK   26  A    between atoms: _61  and  _62
REMARK   27  A    between atoms: _65  and  _67
REMARK   28  A    between atoms: _67  and  _68
REMARK   29  A    between atoms: _67  and  _70
REMARK   30  A    between atoms: _70  and  _71
REMARK   31  A    between atoms: _74  and  _76
REMARK   32  A    between atoms: _76  and  _77
REMARK   33  A    between atoms: _76  and  _79
REMARK   34  A    between atoms: _79  and  _80
REMARK   35  A    between atoms: _85  and  _87
REMARK   36  A    between atoms: _87  and  _88
REMARK   37  A    between atoms: _87  and  _90
REMARK   38  A    between atoms: _90  and  _91
REMARK   39  A    between atoms: _94  and  _96
REMARK   40  A    between atoms: _96  and  _97
REMARK   41  A    between atoms: _96  and  _99
REMARK   42  A    between atoms: _102  and  _104
REMARK   43  A    between atoms: _104  and  _105
REMARK   44  A    between atoms: _104  and  _107
REMARK   45  A    between atoms: _107  and  _108
REMARK   46  A    between atoms: _108  and  _109
REMARK   47  A    between atoms: _109  and  _110
REMARK   48  A    between atoms: _110  and  _111
REMARK   49  A    between atoms: _115  and  _117
REMARK   50  A    between atoms: _117  and  _118
REMARK   51  A    between atoms: _117  and  _120
REMARK   52  A    between atoms: _120  and  _121
REMARK   53  A    between atoms: _121  and  _122
REMARK   54  A    between atoms: _124  and  _126
REMARK   55  A    between atoms: _126  and  _127
REMARK   56  A    between atoms: _126  and  _129
REMARK   57  A    between atoms: _129  and  _130
REMARK   58  A    between atoms: _133  and  _135
REMARK   59  A    between atoms: _135  and  _136
REMARK   60  A    between atoms: _138  and  _140
REMARK   61  A    between atoms: _140  and  _141
REMARK   62  A    between atoms: _143  and  _145
REMARK   63  A    between atoms: _145  and  _146
REMARK   64  A    between atoms: _145  and  _148
REMARK   65  A    between atoms: _148  and  _149
REMARK   66  A    between atoms: _152  and  _154
REMARK   67  A    between atoms: _154  and  _155
REMARK   68  A    between atoms: _157  and  _159
REMARK   69  A    between atoms: _159  and  _160
REMARK   70  A    between atoms: _162  and  _164
REMARK   71  A    between atoms: _164  and  _165
REMARK   72  A    between atoms: _164  and  _167
REMARK   73  A    between atoms: _167  and  _168
REMARK   74  A    between atoms: _171  and  _173
REMARK   75  A    between atoms: _173  and  _174
REMARK   76  A    between atoms: _173  and  _176
REMARK   77  A    between atoms: _176  and  _177
REMARK   78  A    between atoms: _181  and  _182
REMARK   79  A    between atoms: _187  and  _189
REMARK   80  A    between atoms: _189  and  _190
REMARK   81  A    between atoms: _189  and  _192
REMARK   82  A    between atoms: _192  and  _193
REMARK   83  A    between atoms: _197  and  _198
REMARK   84  A    between atoms: _203  and  _205
REMARK   85  A    between atoms: _205  and  _206
REMARK   86  A    between atoms: _205  and  _208
REMARK   87  A    between atoms: _211  and  _213
REMARK   88  A    between atoms: _213  and  _214
REMARK   89  A    between atoms: _213  and  _216
REMARK   90  A    between atoms: _216  and  _217
REMARK   91  A    between atoms: _222  and  _224
REMARK   92  A    between atoms: _224  and  _225
REMARK   93  A    between atoms: _224  and  _227
REMARK   94  A    between atoms: _227  and  _228
REMARK   95  A    between atoms: _231  and  _233
REMARK   96  A    between atoms: _233  and  _234
REMARK   97  A    between atoms: _233  and  _236
REMARK   98  A    between atoms: _236  and  _237
REMARK   99  A    between atoms: _240  and  _242
REMARK  100  A    between atoms: _242  and  _243
REMARK  101  A    between atoms: _245  and  _247
REMARK  102  A    between atoms: _247  and  _248
REMARK  103  A    between atoms: _247  and  _250
REMARK  104  A    between atoms: _250  and  _251
REMARK  105  A    between atoms: _251  and  _252
REMARK  106  A    between atoms: _252  and  _253
REMARK  107  A    between atoms: _262  and  _264
REMARK  108  A    between atoms: _264  and  _265
REMARK  109  A    between atoms: _264  and  _267
REMARK  110  A    between atoms: _267  and  _268
REMARK  111  A    between atoms: _273  and  _275
REMARK  112  A    between atoms: _275  and  _276
REMARK  113  A    between atoms: _275  and  _278
REMARK  114  A    between atoms: _278  and  _279
REMARK  115  A    between atoms: _279  and  _280
REMARK  116  A    between atoms: _280  and  _281
REMARK  117  A    between atoms: _290  and  _292
REMARK  118  A    between atoms: _292  and  _293
REMARK  119  A    between atoms: _292  and  _295
REMARK  120  A    between atoms: _295  and  _296
REMARK  121  A    between atoms: _299  and  _301
REMARK  122  A    between atoms: _301  and  _302
REMARK  123  A    between atoms: _301  and  _304
REMARK  124  A    between atoms: _304  and  _305
REMARK  125  A    between atoms: _308  and  _310
REMARK  126  A    between atoms: _310  and  _311
REMARK  127  A    between atoms: _310  and  _313
REMARK  128  A    between atoms: _313  and  _314
REMARK  129  A    between atoms: _317  and  _319
REMARK  130  A    between atoms: _319  and  _320
REMARK  131  A    between atoms: _319  and  _322
REMARK  132  A    between atoms: _322  and  _323
REMARK  133  A    between atoms: _326  and  _328
REMARK  134  A    between atoms: _328  and  _329
REMARK  135  A    between atoms: _328  and  _331
REMARK  136  A    between atoms: _331  and  _332
REMARK  137  A    between atoms: _335  and  _337
REMARK  138  A    between atoms: _337  and  _338
REMARK  139  A    between atoms: _340  and  _342
REMARK  140  A    between atoms: _342  and  _343
REMARK  141  A    between atoms: _346  and  _348
REMARK  142  A    between atoms: _348  and  _349
REMARK  143  A    between atoms: _348  and  _351
REMARK  144  A    between atoms: _351  and  _352
REMARK  145  A    between atoms: _355  and  _357
REMARK  146  A    between atoms: _357  and  _358
REMARK  147  A    between atoms: _357  and  _360
REMARK  148  A    between atoms: _360  and  _361
REMARK  149  A    between atoms: _366  and  _368
REMARK  150  A    between atoms: _368  and  _369
REMARK  151  A    between atoms: _368  and  _371
REMARK  152  A    between atoms: _371  and  _372
REMARK  153  A    between atoms: _375  and  _377
REMARK  154  A    between atoms: _377  and  _378
REMARK  155  A    between atoms: _377  and  _380
REMARK  156  A    between atoms: _383  and  _385
REMARK  157  A    between atoms: _385  and  _386
REMARK  158  A    between atoms: _385  and  _388
REMARK  159  A    between atoms: _388  and  _389
REMARK  160  A    between atoms: _389  and  _390
REMARK  161  A    between atoms: _390  and  _391
REMARK  162  A    between atoms: _391  and  _392
REMARK  163  A    between atoms: _396  and  _398
REMARK  164  A    between atoms: _398  and  _399
REMARK  165  A    between atoms: _398  and  _401
REMARK  166  A    between atoms: _401  and  _402
REMARK  167  A    between atoms: _402  and  _403
REMARK  168  A    between atoms: _405  and  _407
REMARK  169  A    between atoms: _407  and  _408
REMARK  170  A    between atoms: _407  and  _410
REMARK  171  A    between atoms: _410  and  _411
REMARK  172  A    between atoms: _414  and  _416
REMARK  173  A    between atoms: _416  and  _417
REMARK  174  A    between atoms: _419  and  _421
REMARK  175  A    between atoms: _421  and  _422
REMARK  176  A    between atoms: _424  and  _426
REMARK  177  A    between atoms: _426  and  _427
REMARK  178  A    between atoms: _426  and  _429
REMARK  179  A    between atoms: _429  and  _430
REMARK  180  A    between atoms: _433  and  _435
REMARK  181  A    between atoms: _435  and  _436
REMARK  182  A    between atoms: _438  and  _440
REMARK  183  A    between atoms: _440  and  _441
REMARK  184  A    between atoms: _443  and  _445
REMARK  185  A    between atoms: _445  and  _446
REMARK  186  A    between atoms: _445  and  _448
REMARK  187  A    between atoms: _448  and  _449
REMARK  188  A    between atoms: _455  and  _457
REMARK  189  A    between atoms: _457  and  _458
REMARK  190  A    between atoms: _457  and  _460
REMARK  191  A    between atoms: _460  and  _461
REMARK  192  A    between atoms: _464  and  _466
REMARK  193  A    between atoms: _466  and  _467
REMARK  194  A    between atoms: _466  and  _469
REMARK  195  A    between atoms: _472  and  _474
REMARK  196  A    between atoms: _474  and  _475
REMARK  197  A    between atoms: _474  and  _477
REMARK  198  A    between atoms: _477  and  _478
REMARK  199  A    between atoms: _481  and  _483
REMARK  200  A    between atoms: _483  and  _484
REMARK  201  A    between atoms: _483  and  _486
REMARK  202  A    between atoms: _486  and  _487
REMARK  203  A    between atoms: _491  and  _492
REMARK  204  A    between atoms: _497  and  _499
REMARK  205  A    between atoms: _499  and  _500
REMARK  206  A    between atoms: _499  and  _502
REMARK  207  A    between atoms: _505  and  _507
REMARK  208  A    between atoms: _507  and  _508
REMARK  209  A    between atoms: _507  and  _510
REMARK  210  A    between atoms: _510  and  _511
REMARK  211  A    between atoms: _516  and  _518
REMARK  212  A    between atoms: _518  and  _519
REMARK  213  A    between atoms: _518  and  _521
REMARK  214  A    between atoms: _521  and  _522
REMARK  215  A    between atoms: _525  and  _527
REMARK  216  A    between atoms: _527  and  _528
REMARK  217  A    between atoms: _527  and  _530
REMARK  218  A    between atoms: _530  and  _531
REMARK  219  A    between atoms: _534  and  _536
REMARK  220  A    between atoms: _536  and  _537
REMARK  221  A    between atoms: _539  and  _541
REMARK  222  A    between atoms: _541  and  _542
REMARK  223  A    between atoms: _541  and  _544
REMARK  224  A    between atoms: _544  and  _545
REMARK  225  A    between atoms: _545  and  _546
REMARK  226  A    between atoms: _546  and  _547
REMARK  227  A    between atoms: _556  and  _558
REMARK  228  A    between atoms: _558  and  _559
REMARK  229  A    between atoms: _558  and  _561
REMARK  230  A    between atoms: _561  and  _562
REMARK                            x       y       z     vdW  Elec       q    Type
REMARK                         _______ _______ _______ _____ _____    ______ ____
ROOT
ATOM      1  O   HOH     1      -8.911  23.246  15.970  0.00  0.00    +0.000 OA
ENDROOT
TORSDOF 0
REMARK  Name = ../refined-set-2016/2pyn/2pyn_pocket.pdb
REMARK  230 active torsions:
REMARK  status: ('A' for Active; 'I' for Inactive)
REMARK    1  A    between atoms: _1  and  _3
REMARK    2  A    between atoms: _3  and  _4
REMARK    3  A    between atoms: _3  and  _6
REMARK    4  A    between atoms: _6  and  _7
REMARK    5  A    between atoms: _7  and  _8
REMARK    6  A    between atoms: _8  and  _9
REMARK    7  A    between atoms: _18  and  _20
REMARK    8  A    between atoms: _20  and  _21
REMARK    9  A    between atoms: _20  and  _23
REMARK   10  A    between atoms: _23  and  _24
REMARK   11  A    between atoms: _27  and  _29
REMARK   12  A    between atoms: _29  and  _30
REMARK   13  A    between atoms: _29  and  _32
REMARK   14  A    between atoms: _32  and  _33
REMARK   15  A    between atoms: _36  and  _38
REMARK   16  A    between atoms: _38  and  _39
REMARK   17  A    between atoms: _38  and  _41
REMARK   18  A    between atoms: _41  and  _42
REMARK   19  A    between atoms: _45  and  _47
REMARK   20  A    between atoms: _47  and  _48
REMARK   21  A    between atoms: _47  and  _50
REMARK   22  A    between atoms: _50  and  _51
REMARK   23  A    between atoms: _54  and  _56
REMARK   24  A    between atoms: _56  and  _57
REMARK   25  A    between atoms: _59  and  _61
REMARK   26  A    between atoms: _61  and  _62
REMARK   27  A    between atoms: _65  and  _67
REMARK   28  A    between atoms: _67  and  _68
REMARK   29  A    between atoms: _67  and  _70
REMARK   30  A    between atoms: _70  and  _71
REMARK   31  A    between atoms: _74  and  _76
REMARK   32  A    between atoms: _76  and  _77
REMARK   33  A    between atoms: _76  and  _79
REMARK   34  A    between atoms: _79  and  _80
REMARK   35  A    between atoms: _85  and  _87
REMARK   36  A    between atoms: _87  and  _88
REMARK   37  A    between atoms: _87  and  _90
REMARK   38  A    between atoms: _90  and  _91
REMARK   39  A    between atoms: _94  and  _96
REMARK   40  A    between atoms: _96  and  _97
REMARK   41  A    between atoms: _96  and  _99
REMARK   42  A    between atoms: _102  and  _104
REMARK   43  A    between atoms: _104  and  _105
REMARK   44  A    between atoms: _104  and  _107
REMARK   45  A    between atoms: _107  and  _108
REMARK   46  A    between atoms: _108  and  _109
REMARK   47  A    between atoms: _109  and  _110
REMARK   48  A    between atoms: _110  and  _111
REMARK   49  A    between atoms: _115  and  _117
REMARK   50  A    between atoms: _117  and  _118
REMARK   51  A    between atoms: _117  and  _120
REMARK   52  A    between atoms: _120  and  _121
REMARK   53  A    between atoms: _121  and  _122
REMARK   54  A    between atoms: _124  and  _126
REMARK   55  A    between atoms: _126  and  _127
REMARK   56  A    between atoms: _126  and  _129
REMARK   57  A    between atoms: _129  and  _130
REMARK   58  A    between atoms: _133  and  _135
REMARK   59  A    between atoms: _135  and  _136
REMARK   60  A    between atoms: _138  and  _140
REMARK   61  A    between atoms: _140  and  _141
REMARK   62  A    between atoms: _143  and  _145
REMARK   63  A    between atoms: _145  and  _146
REMARK   64  A    between atoms: _145  and  _148
REMARK   65  A    between atoms: _148  and  _149
REMARK   66  A    between atoms: _152  and  _154
REMARK   67  A    between atoms: _154  and  _155
REMARK   68  A    between atoms: _157  and  _159
REMARK   69  A    between atoms: _159  and  _160
REMARK   70  A    between atoms: _162  and  _164
REMARK   71  A    between atoms: _164  and  _165
REMARK   72  A    between atoms: _164  and  _167
REMARK   73  A    between atoms: _167  and  _168
REMARK   74  A    between atoms: _171  and  _173
REMARK   75  A    between atoms: _173  and  _174
REMARK   76  A    between atoms: _173  and  _176
REMARK   77  A    between atoms: _176  and  _177
REMARK   78  A    between atoms: _181  and  _182
REMARK   79  A    between atoms: _187  and  _189
REMARK   80  A    between atoms: _189  and  _190
REMARK   81  A    between atoms: _189  and  _192
REMARK   82  A    between atoms: _192  and  _193
REMARK   83  A    between atoms: _197  and  _198
REMARK   84  A    between atoms: _203  and  _205
REMARK   85  A    between atoms: _205  and  _206
REMARK   86  A    between atoms: _205  and  _208
REMARK   87  A    between atoms: _211  and  _213
REMARK   88  A    between atoms: _213  and  _214
REMARK   89  A    between atoms: _213  and  _216
REMARK   90  A    between atoms: _216  and  _217
REMARK   91  A    between atoms: _222  and  _224
REMARK   92  A    between atoms: _224  and  _225
REMARK   93  A    between atoms: _224  and  _227
REMARK   94  A    between atoms: _227  and  _228
REMARK   95  A    between atoms: _231  and  _233
REMARK   96  A    between atoms: _233  and  _234
REMARK   97  A    between atoms: _233  and  _236
REMARK   98  A    between atoms: _236  and  _237
REMARK   99  A    between atoms: _240  and  _242
REMARK  100  A    between atoms: _242  and  _243
REMARK  101  A    between atoms: _245  and  _247
REMARK  102  A    between atoms: _247  and  _248
REMARK  103  A    between atoms: _247  and  _250
REMARK  104  A    between atoms: _250  and  _251
REMARK  105  A    between atoms: _251  and  _252
REMARK  106  A    between atoms: _252  and  _253
REMARK  107  A    between atoms: _262  and  _264
REMARK  108  A    between atoms: _264  and  _265
REMARK  109  A    between atoms: _264  and  _267
REMARK  110  A    between atoms: _267  and  _268
REMARK  111  A    between atoms: _273  and  _275
REMARK  112  A    between atoms: _275  and  _276
REMARK  113  A    between atoms: _275  and  _278
REMARK  114  A    between atoms: _278  and  _279
REMARK  115  A    between atoms: _279  and  _280
REMARK  116  A    between atoms: _280  and  _281
REMARK  117  A    between atoms: _290  and  _292
REMARK  118  A    between atoms: _292  and  _293
REMARK  119  A    between atoms: _292  and  _295
REMARK  120  A    between atoms: _295  and  _296
REMARK  121  A    between atoms: _299  and  _301
REMARK  122  A    between atoms: _301  and  _302
REMARK  123  A    between atoms: _301  and  _304
REMARK  124  A    between atoms: _304  and  _305
REMARK  125  A    between atoms: _308  and  _310
REMARK  126  A    between atoms: _310  and  _311
REMARK  127  A    between atoms: _310  and  _313
REMARK  128  A    between atoms: _313  and  _314
REMARK  129  A    between atoms: _317  and  _319
REMARK  130  A    between atoms: _319  and  _320
REMARK  131  A    between atoms: _319  and  _322
REMARK  132  A    between atoms: _322  and  _323
REMARK  133  A    between atoms: _326  and  _328
REMARK  134  A    between atoms: _328  and  _329
REMARK  135  A    between atoms: _328  and  _331
REMARK  136  A    between atoms: _331  and  _332
REMARK  137  A    between atoms: _335  and  _337
REMARK  138  A    between atoms: _337  and  _338
REMARK  139  A    between atoms: _340  and  _342
REMARK  140  A    between atoms: _342  and  _343
REMARK  141  A    between atoms: _346  and  _348
REMARK  142  A    between atoms: _348  and  _349
REMARK  143  A    between atoms: _348  and  _351
REMARK  144  A    between atoms: _351  and  _352
REMARK  145  A    between atoms: _355  and  _357
REMARK  146  A    between atoms: _357  and  _358
REMARK  147  A    between atoms: _357  and  _360
REMARK  148  A    between atoms: _360  and  _361
REMARK  149  A    between atoms: _366  and  _368
REMARK  150  A    between atoms: _368  and  _369
REMARK  151  A    between atoms: _368  and  _371
REMARK  152  A    between atoms: _371  and  _372
REMARK  153  A    between atoms: _375  and  _377
REMARK  154  A    between atoms: _377  and  _378
REMARK  155  A    between atoms: _377  and  _380
REMARK  156  A    between atoms: _383  and  _385
REMARK  157  A    between atoms: _385  and  _386
REMARK  158  A    between atoms: _385  and  _388
REMARK  159  A    between atoms: _388  and  _389
REMARK  160  A    between atoms: _389  and  _390
REMARK  161  A    between atoms: _390  and  _391
REMARK  162  A    between atoms: _391  and  _392
REMARK  163  A    between atoms: _396  and  _398
REMARK  164  A    between atoms: _398  and  _399
REMARK  165  A    between atoms: _398  and  _401
REMARK  166  A    between atoms: _401  and  _402
REMARK  167  A    between atoms: _402  and  _403
REMARK  168  A    between atoms: _405  and  _407
REMARK  169  A    between atoms: _407  and  _408
REMARK  170  A    between atoms: _407  and  _410
REMARK  171  A    between atoms: _410  and  _411
REMARK  172  A    between atoms: _414  and  _416
REMARK  173  A    between atoms: _416  and  _417
REMARK  174  A    between atoms: _419  and  _421
REMARK  175  A    between atoms: _421  and  _422
REMARK  176  A    between atoms: _424  and  _426
REMARK  177  A    between atoms: _426  and  _427
REMARK  178  A    between atoms: _426  and  _429
REMARK  179  A    between atoms: _429  and  _430
REMARK  180  A    between atoms: _433  and  _435
REMARK  181  A    between atoms: _435  and  _436
REMARK  182  A    between atoms: _438  and  _440
REMARK  183  A    between atoms: _440  and  _441
REMARK  184  A    between atoms: _443  and  _445
REMARK  185  A    between atoms: _445  and  _446
REMARK  186  A    between atoms: _445  and  _448
REMARK  187  A    between atoms: _448  and  _449
REMARK  188  A    between atoms: _455  and  _457
REMARK  189  A    between atoms: _457  and  _458
REMARK  190  A    between atoms: _457  and  _460
REMARK  191  A    between atoms: _460  and  _461
REMARK  192  A    between atoms: _464  and  _466
REMARK  193  A    between atoms: _466  and  _467
REMARK  194  A    between atoms: _466  and  _469
REMARK  195  A    between atoms: _472  and  _474
REMARK  196  A    between atoms: _474  and  _475
REMARK  197  A    between atoms: _474  and  _477
REMARK  198  A    between atoms: _477  and  _478
REMARK  199  A    between atoms: _481  and  _483
REMARK  200  A    between atoms: _483  and  _484
REMARK  201  A    between atoms: _483  and  _486
REMARK  202  A    between atoms: _486  and  _487
REMARK  203  A    between atoms: _491  and  _492
REMARK  204  A    between atoms: _497  and  _499
REMARK  205  A    between atoms: _499  and  _500
REMARK  206  A    between atoms: _499  and  _502
REMARK  207  A    between atoms: _505  and  _507
REMARK  208  A    between atoms: _507  and  _508
REMARK  209  A    between atoms: _507  and  _510
REMARK  210  A    between atoms: _510  and  _511
REMARK  211  A    between atoms: _516  and  _518
REMARK  212  A    between atoms: _518  and  _519
REMARK  213  A    between atoms: _518  and  _521
REMARK  214  A    between atoms: _521  and  _522
REMARK  215  A    between atoms: _525  and  _527
REMARK  216  A    between atoms: _527  and  _528
REMARK  217  A    between atoms: _527  and  _530
REMARK  218  A    between atoms: _530  and  _531
REMARK  219  A    between atoms: _534  and  _536
REMARK  220  A    between atoms: _536  and  _537
REMARK  221  A    between atoms: _539  and  _541
REMARK  222  A    between atoms: _541  and  _542
REMARK  223  A    between atoms: _541  and  _544
REMARK  224  A    between atoms: _544  and  _545
REMARK  225  A    between atoms: _545  and  _546
REMARK  226  A    between atoms: _546  and  _547
REMARK  227  A    between atoms: _556  and  _558
REMARK  228  A    between atoms: _558  and  _559
REMARK  229  A    between atoms: _558  and  _561
REMARK  230  A    between atoms: _561  and  _562
REMARK                            x       y       z     vdW  Elec       q    Type
REMARK                         _______ _______ _______ _____ _____    ______ ____
ROOT
ATOM      1  O   HOH     1     -20.152  13.122  29.947  0.00  0.00    +0.000 OA
ENDROOT
TORSDOF 0
REMARK  Name = ../refined-set-2016/2pyn/2pyn_pocket.pdb
REMARK  230 active torsions:
REMARK  status: ('A' for Active; 'I' for Inactive)
REMARK    1  A    between atoms: _1  and  _3
REMARK    2  A    between atoms: _3  and  _4
REMARK    3  A    between atoms: _3  and  _6
REMARK    4  A    between atoms: _6  and  _7
REMARK    5  A    between atoms: _7  and  _8
REMARK    6  A    between atoms: _8  and  _9
REMARK    7  A    between atoms: _18  and  _20
REMARK    8  A    between atoms: _20  and  _21
REMARK    9  A    between atoms: _20  and  _23
REMARK   10  A    between atoms: _23  and  _24
REMARK   11  A    between atoms: _27  and  _29
REMARK   12  A    between atoms: _29  and  _30
REMARK   13  A    between atoms: _29  and  _32
REMARK   14  A    between atoms: _32  and  _33
REMARK   15  A    between atoms: _36  and  _38
REMARK   16  A    between atoms: _38  and  _39
REMARK   17  A    between atoms: _38  and  _41
REMARK   18  A    between atoms: _41  and  _42
REMARK   19  A    between atoms: _45  and  _47
REMARK   20  A    between atoms: _47  and  _48
REMARK   21  A    between atoms: _47  and  _50
REMARK   22  A    between atoms: _50  and  _51
REMARK   23  A    between atoms: _54  and  _56
REMARK   24  A    between atoms: _56  and  _57
REMARK   25  A    between atoms: _59  and  _61
REMARK   26  A    between atoms: _61  and  _62
REMARK   27  A    between atoms: _65  and  _67
REMARK   28  A    between atoms: _67  and  _68
REMARK   29  A    between atoms: _67  and  _70
REMARK   30  A    between atoms: _70  and  _71
REMARK   31  A    between atoms: _74  and  _76
REMARK   32  A    between atoms: _76  and  _77
REMARK   33  A    between atoms: _76  and  _79
REMARK   34  A    between atoms: _79  and  _80
REMARK   35  A    between atoms: _85  and  _87
REMARK   36  A    between atoms: _87  and  _88
REMARK   37  A    between atoms: _87  and  _90
REMARK   38  A    between atoms: _90  and  _91
REMARK   39  A    between atoms: _94  and  _96
REMARK   40  A    between atoms: _96  and  _97
REMARK   41  A    between atoms: _96  and  _99
REMARK   42  A    between atoms: _102  and  _104
REMARK   43  A    between atoms: _104  and  _105
REMARK   44  A    between atoms: _104  and  _107
REMARK   45  A    between atoms: _107  and  _108
REMARK   46  A    between atoms: _108  and  _109
REMARK   47  A    between atoms: _109  and  _110
REMARK   48  A    between atoms: _110  and  _111
REMARK   49  A    between atoms: _115  and  _117
REMARK   50  A    between atoms: _117  and  _118
REMARK   51  A    between atoms: _117  and  _120
REMARK   52  A    between atoms: _120  and  _121
REMARK   53  A    between atoms: _121  and  _122
REMARK   54  A    between atoms: _124  and  _126
REMARK   55  A    between atoms: _126  and  _127
REMARK   56  A    between atoms: _126  and  _129
REMARK   57  A    between atoms: _129  and  _130
REMARK   58  A    between atoms: _133  and  _135
REMARK   59  A    between atoms: _135  and  _136
REMARK   60  A    between atoms: _138  and  _140
REMARK   61  A    between atoms: _140  and  _141
REMARK   62  A    between atoms: _143  and  _145
REMARK   63  A    between atoms: _145  and  _146
REMARK   64  A    between atoms: _145  and  _148
REMARK   65  A    between atoms: _148  and  _149
REMARK   66  A    between atoms: _152  and  _154
REMARK   67  A    between atoms: _154  and  _155
REMARK   68  A    between atoms: _157  and  _159
REMARK   69  A    between atoms: _159  and  _160
REMARK   70  A    between atoms: _162  and  _164
REMARK   71  A    between atoms: _164  and  _165
REMARK   72  A    between atoms: _164  and  _167
REMARK   73  A    between atoms: _167  and  _168
REMARK   74  A    between atoms: _171  and  _173
REMARK   75  A    between atoms: _173  and  _174
REMARK   76  A    between atoms: _173  and  _176
REMARK   77  A    between atoms: _176  and  _177
REMARK   78  A    between atoms: _181  and  _182
REMARK   79  A    between atoms: _187  and  _189
REMARK   80  A    between atoms: _189  and  _190
REMARK   81  A    between atoms: _189  and  _192
REMARK   82  A    between atoms: _192  and  _193
REMARK   83  A    between atoms: _197  and  _198
REMARK   84  A    between atoms: _203  and  _205
REMARK   85  A    between atoms: _205  and  _206
REMARK   86  A    between atoms: _205  and  _208
REMARK   87  A    between atoms: _211  and  _213
REMARK   88  A    between atoms: _213  and  _214
REMARK   89  A    between atoms: _213  and  _216
REMARK   90  A    between atoms: _216  and  _217
REMARK   91  A    between atoms: _222  and  _224
REMARK   92  A    between atoms: _224  and  _225
REMARK   93  A    between atoms: _224  and  _227
REMARK   94  A    between atoms: _227  and  _228
REMARK   95  A    between atoms: _231  and  _233
REMARK   96  A    between atoms: _233  and  _234
REMARK   97  A    between atoms: _233  and  _236
REMARK   98  A    between atoms: _236  and  _237
REMARK   99  A    between atoms: _240  and  _242
REMARK  100  A    between atoms: _242  and  _243
REMARK  101  A    between atoms: _245  and  _247
REMARK  102  A    between atoms: _247  and  _248
REMARK  103  A    between atoms: _247  and  _250
REMARK  104  A    between atoms: _250  and  _251
REMARK  105  A    between atoms: _251  and  _252
REMARK  106  A    between atoms: _252  and  _253
REMARK  107  A    between atoms: _262  and  _264
REMARK  108  A    between atoms: _264  and  _265
REMARK  109  A    between atoms: _264  and  _267
REMARK  110  A    between atoms: _267  and  _268
REMARK  111  A    between atoms: _273  and  _275
REMARK  112  A    between atoms: _275  and  _276
REMARK  113  A    between atoms: _275  and  _278
REMARK  114  A    between atoms: _278  and  _279
REMARK  115  A    between atoms: _279  and  _280
REMARK  116  A    between atoms: _280  and  _281
REMARK  117  A    between atoms: _290  and  _292
REMARK  118  A    between atoms: _292  and  _293
REMARK  119  A    between atoms: _292  and  _295
REMARK  120  A    between atoms: _295  and  _296
REMARK  121  A    between atoms: _299  and  _301
REMARK  122  A    between atoms: _301  and  _302
REMARK  123  A    between atoms: _301  and  _304
REMARK  124  A    between atoms: _304  and  _305
REMARK  125  A    between atoms: _308  and  _310
REMARK  126  A    between atoms: _310  and  _311
REMARK  127  A    between atoms: _310  and  _313
REMARK  128  A    between atoms: _313  and  _314
REMARK  129  A    between atoms: _317  and  _319
REMARK  130  A    between atoms: _319  and  _320
REMARK  131  A    between atoms: _319  and  _322
REMARK  132  A    between atoms: _322  and  _323
REMARK  133  A    between atoms: _326  and  _328
REMARK  134  A    between atoms: _328  and  _329
REMARK  135  A    between atoms: _328  and  _331
REMARK  136  A    between atoms: _331  and  _332
REMARK  137  A    between atoms: _335  and  _337
REMARK  138  A    between atoms: _337  and  _338
REMARK  139  A    between atoms: _340  and  _342
REMARK  140  A    between atoms: _342  and  _343
REMARK  141  A    between atoms: _346  and  _348
REMARK  142  A    between atoms: _348  and  _349
REMARK  143  A    between atoms: _348  and  _351
REMARK  144  A    between atoms: _351  and  _352
REMARK  145  A    between atoms: _355  and  _357
REMARK  146  A    between atoms: _357  and  _358
REMARK  147  A    between atoms: _357  and  _360
REMARK  148  A    between atoms: _360  and  _361
REMARK  149  A    between atoms: _366  and  _368
REMARK  150  A    between atoms: _368  and  _369
REMARK  151  A    between atoms: _368  and  _371
REMARK  152  A    between atoms: _371  and  _372
REMARK  153  A    between atoms: _375  and  _377
REMARK  154  A    between atoms: _377  and  _378
REMARK  155  A    between atoms: _377  and  _380
REMARK  156  A    between atoms: _383  and  _385
REMARK  157  A    between atoms: _385  and  _386
REMARK  158  A    between atoms: _385  and  _388
REMARK  159  A    between atoms: _388  and  _389
REMARK  160  A    between atoms: _389  and  _390
REMARK  161  A    between atoms: _390  and  _391
REMARK  162  A    between atoms: _391  and  _392
REMARK  163  A    between atoms: _396  and  _398
REMARK  164  A    between atoms: _398  and  _399
REMARK  165  A    between atoms: _398  and  _401
REMARK  166  A    between atoms: _401  and  _402
REMARK  167  A    between atoms: _402  and  _403
REMARK  168  A    between atoms: _405  and  _407
REMARK  169  A    between atoms: _407  and  _408
REMARK  170  A    between atoms: _407  and  _410
REMARK  171  A    between atoms: _410  and  _411
REMARK  172  A    between atoms: _414  and  _416
REMARK  173  A    between atoms: _416  and  _417
REMARK  174  A    between atoms: _419  and  _421
REMARK  175  A    between atoms: _421  and  _422
REMARK  176  A    between atoms: _424  and  _426
REMARK  177  A    between atoms: _426  and  _427
REMARK  178  A    between atoms: _426  and  _429
REMARK  179  A    between atoms: _429  and  _430
REMARK  180  A    between atoms: _433  and  _435
REMARK  181  A    between atoms: _435  and  _436
REMARK  182  A    between atoms: _438  and  _440
REMARK  183  A    between atoms: _440  and  _441
REMARK  184  A    between atoms: _443  and  _445
REMARK  185  A    between atoms: _445  and  _446
REMARK  186  A    between atoms: _445  and  _448
REMARK  187  A    between atoms: _448  and  _449
REMARK  188  A    between atoms: _455  and  _457
REMARK  189  A    between atoms: _457  and  _458
REMARK  190  A    between atoms: _457  and  _460
REMARK  191  A    between atoms: _460  and  _461
REMARK  192  A    between atoms: _464  and  _466
REMARK  193  A    between atoms: _466  and  _467
REMARK  194  A    between atoms: _466  and  _469
REMARK  195  A    between atoms: _472  and  _474
REMARK  196  A    between atoms: _474  and  _475
REMARK  197  A    between atoms: _474  and  _477
REMARK  198  A    between atoms: _477  and  _478
REMARK  199  A    between atoms: _481  and  _483
REMARK  200  A    between atoms: _483  and  _484
REMARK  201  A    between atoms: _483  and  _486
REMARK  202  A    between atoms: _486  and  _487
REMARK  203  A    between atoms: _491  and  _492
REMARK  204  A    between atoms: _497  and  _499
REMARK  205  A    between atoms: _499  and  _500
REMARK  206  A    between atoms: _499  and  _502
REMARK  207  A    between atoms: _505  and  _507
REMARK  208  A    between atoms: _507  and  _508
REMARK  209  A    between atoms: _507  and  _510
REMARK  210  A    between atoms: _510  and  _511
REMARK  211  A    between atoms: _516  and  _518
REMARK  212  A    between atoms: _518  and  _519
REMARK  213  A    between atoms: _518  and  _521
REMARK  214  A    between atoms: _521  and  _522
REMARK  215  A    between atoms: _525  and  _527
REMARK  216  A    between atoms: _527  and  _528
REMARK  217  A    between atoms: _527  and  _530
REMARK  218  A    between atoms: _530  and  _531
REMARK  219  A    between atoms: _534  and  _536
REMARK  220  A    between atoms: _536  and  _537
REMARK  221  A    between atoms: _539  and  _541
REMARK  222  A    between atoms: _541  and  _542
REMARK  223  A    between atoms: _541  and  _544
REMARK  224  A    between atoms: _544  and  _545
REMARK  225  A    between atoms: _545  and  _546
REMARK  226  A    between atoms: _546  and  _547
REMARK  227  A    between atoms: _556  and  _558
REMARK  228  A    between atoms: _558  and  _559
REMARK  229  A    between atoms: _558  and  _561
REMARK  230  A    between atoms: _561  and  _562
REMARK                            x       y       z     vdW  Elec       q    Type
REMARK                         _______ _______ _______ _____ _____    ______ ____
ROOT
ATOM      1  O   HOH     1      -4.180  19.074  17.330  0.00  0.00    +0.000 OA
ENDROOT
TORSDOF 0
REMARK  Name = ../refined-set-2016/2pyn/2pyn_pocket.pdb
REMARK  230 active torsions:
REMARK  status: ('A' for Active; 'I' for Inactive)
REMARK    1  A    between atoms: _1  and  _3
REMARK    2  A    between atoms: _3  and  _4
REMARK    3  A    between atoms: _3  and  _6
REMARK    4  A    between atoms: _6  and  _7
REMARK    5  A    between atoms: _7  and  _8
REMARK    6  A    between atoms: _8  and  _9
REMARK    7  A    between atoms: _18  and  _20
REMARK    8  A    between atoms: _20  and  _21
REMARK    9  A    between atoms: _20  and  _23
REMARK   10  A    between atoms: _23  and  _24
REMARK   11  A    between atoms: _27  and  _29
REMARK   12  A    between atoms: _29  and  _30
REMARK   13  A    between atoms: _29  and  _32
REMARK   14  A    between atoms: _32  and  _33
REMARK   15  A    between atoms: _36  and  _38
REMARK   16  A    between atoms: _38  and  _39
REMARK   17  A    between atoms: _38  and  _41
REMARK   18  A    between atoms: _41  and  _42
REMARK   19  A    between atoms: _45  and  _47
REMARK   20  A    between atoms: _47  and  _48
REMARK   21  A    between atoms: _47  and  _50
REMARK   22  A    between atoms: _50  and  _51
REMARK   23  A    between atoms: _54  and  _56
REMARK   24  A    between atoms: _56  and  _57
REMARK   25  A    between atoms: _59  and  _61
REMARK   26  A    between atoms: _61  and  _62
REMARK   27  A    between atoms: _65  and  _67
REMARK   28  A    between atoms: _67  and  _68
REMARK   29  A    between atoms: _67  and  _70
REMARK   30  A    between atoms: _70  and  _71
REMARK   31  A    between atoms: _74  and  _76
REMARK   32  A    between atoms: _76  and  _77
REMARK   33  A    between atoms: _76  and  _79
REMARK   34  A    between atoms: _79  and  _80
REMARK   35  A    between atoms: _85  and  _87
REMARK   36  A    between atoms: _87  and  _88
REMARK   37  A    between atoms: _87  and  _90
REMARK   38  A    between atoms: _90  and  _91
REMARK   39  A    between atoms: _94  and  _96
REMARK   40  A    between atoms: _96  and  _97
REMARK   41  A    between atoms: _96  and  _99
REMARK   42  A    between atoms: _102  and  _104
REMARK   43  A    between atoms: _104  and  _105
REMARK   44  A    between atoms: _104  and  _107
REMARK   45  A    between atoms: _107  and  _108
REMARK   46  A    between atoms: _108  and  _109
REMARK   47  A    between atoms: _109  and  _110
REMARK   48  A    between atoms: _110  and  _111
REMARK   49  A    between atoms: _115  and  _117
REMARK   50  A    between atoms: _117  and  _118
REMARK   51  A    between atoms: _117  and  _120
REMARK   52  A    between atoms: _120  and  _121
REMARK   53  A    between atoms: _121  and  _122
REMARK   54  A    between atoms: _124  and  _126
REMARK   55  A    between atoms: _126  and  _127
REMARK   56  A    between atoms: _126  and  _129
REMARK   57  A    between atoms: _129  and  _130
REMARK   58  A    between atoms: _133  and  _135
REMARK   59  A    between atoms: _135  and  _136
REMARK   60  A    between atoms: _138  and  _140
REMARK   61  A    between atoms: _140  and  _141
REMARK   62  A    between atoms: _143  and  _145
REMARK   63  A    between atoms: _145  and  _146
REMARK   64  A    between atoms: _145  and  _148
REMARK   65  A    between atoms: _148  and  _149
REMARK   66  A    between atoms: _152  and  _154
REMARK   67  A    between atoms: _154  and  _155
REMARK   68  A    between atoms: _157  and  _159
REMARK   69  A    between atoms: _159  and  _160
REMARK   70  A    between atoms: _162  and  _164
REMARK   71  A    between atoms: _164  and  _165
REMARK   72  A    between atoms: _164  and  _167
REMARK   73  A    between atoms: _167  and  _168
REMARK   74  A    between atoms: _171  and  _173
REMARK   75  A    between atoms: _173  and  _174
REMARK   76  A    between atoms: _173  and  _176
REMARK   77  A    between atoms: _176  and  _177
REMARK   78  A    between atoms: _181  and  _182
REMARK   79  A    between atoms: _187  and  _189
REMARK   80  A    between atoms: _189  and  _190
REMARK   81  A    between atoms: _189  and  _192
REMARK   82  A    between atoms: _192  and  _193
REMARK   83  A    between atoms: _197  and  _198
REMARK   84  A    between atoms: _203  and  _205
REMARK   85  A    between atoms: _205  and  _206
REMARK   86  A    between atoms: _205  and  _208
REMARK   87  A    between atoms: _211  and  _213
REMARK   88  A    between atoms: _213  and  _214
REMARK   89  A    between atoms: _213  and  _216
REMARK   90  A    between atoms: _216  and  _217
REMARK   91  A    between atoms: _222  and  _224
REMARK   92  A    between atoms: _224  and  _225
REMARK   93  A    between atoms: _224  and  _227
REMARK   94  A    between atoms: _227  and  _228
REMARK   95  A    between atoms: _231  and  _233
REMARK   96  A    between atoms: _233  and  _234
REMARK   97  A    between atoms: _233  and  _236
REMARK   98  A    between atoms: _236  and  _237
REMARK   99  A    between atoms: _240  and  _242
REMARK  100  A    between atoms: _242  and  _243
REMARK  101  A    between atoms: _245  and  _247
REMARK  102  A    between atoms: _247  and  _248
REMARK  103  A    between atoms: _247  and  _250
REMARK  104  A    between atoms: _250  and  _251
REMARK  105  A    between atoms: _251  and  _252
REMARK  106  A    between atoms: _252  and  _253
REMARK  107  A    between atoms: _262  and  _264
REMARK  108  A    between atoms: _264  and  _265
REMARK  109  A    between atoms: _264  and  _267
REMARK  110  A    between atoms: _267  and  _268
REMARK  111  A    between atoms: _273  and  _275
REMARK  112  A    between atoms: _275  and  _276
REMARK  113  A    between atoms: _275  and  _278
REMARK  114  A    between atoms: _278  and  _279
REMARK  115  A    between atoms: _279  and  _280
REMARK  116  A    between atoms: _280  and  _281
REMARK  117  A    between atoms: _290  and  _292
REMARK  118  A    between atoms: _292  and  _293
REMARK  119  A    between atoms: _292  and  _295
REMARK  120  A    between atoms: _295  and  _296
REMARK  121  A    between atoms: _299  and  _301
REMARK  122  A    between atoms: _301  and  _302
REMARK  123  A    between atoms: _301  and  _304
REMARK  124  A    between atoms: _304  and  _305
REMARK  125  A    between atoms: _308  and  _310
REMARK  126  A    between atoms: _310  and  _311
REMARK  127  A    between atoms: _310  and  _313
REMARK  128  A    between atoms: _313  and  _314
REMARK  129  A    between atoms: _317  and  _319
REMARK  130  A    between atoms: _319  and  _320
REMARK  131  A    between atoms: _319  and  _322
REMARK  132  A    between atoms: _322  and  _323
REMARK  133  A    between atoms: _326  and  _328
REMARK  134  A    between atoms: _328  and  _329
REMARK  135  A    between atoms: _328  and  _331
REMARK  136  A    between atoms: _331  and  _332
REMARK  137  A    between atoms: _335  and  _337
REMARK  138  A    between atoms: _337  and  _338
REMARK  139  A    between atoms: _340  and  _342
REMARK  140  A    between atoms: _342  and  _343
REMARK  141  A    between atoms: _346  and  _348
REMARK  142  A    between atoms: _348  and  _349
REMARK  143  A    between atoms: _348  and  _351
REMARK  144  A    between atoms: _351  and  _352
REMARK  145  A    between atoms: _355  and  _357
REMARK  146  A    between atoms: _357  and  _358
REMARK  147  A    between atoms: _357  and  _360
REMARK  148  A    between atoms: _360  and  _361
REMARK  149  A    between atoms: _366  and  _368
REMARK  150  A    between atoms: _368  and  _369
REMARK  151  A    between atoms: _368  and  _371
REMARK  152  A    between atoms: _371  and  _372
REMARK  153  A    between atoms: _375  and  _377
REMARK  154  A    between atoms: _377  and  _378
REMARK  155  A    between atoms: _377  and  _380
REMARK  156  A    between atoms: _383  and  _385
REMARK  157  A    between atoms: _385  and  _386
REMARK  158  A    between atoms: _385  and  _388
REMARK  159  A    between atoms: _388  and  _389
REMARK  160  A    between atoms: _389  and  _390
REMARK  161  A    between atoms: _390  and  _391
REMARK  162  A    between atoms: _391  and  _392
REMARK  163  A    between atoms: _396  and  _398
REMARK  164  A    between atoms: _398  and  _399
REMARK  165  A    between atoms: _398  and  _401
REMARK  166  A    between atoms: _401  and  _402
REMARK  167  A    between atoms: _402  and  _403
REMARK  168  A    between atoms: _405  and  _407
REMARK  169  A    between atoms: _407  and  _408
REMARK  170  A    between atoms: _407  and  _410
REMARK  171  A    between atoms: _410  and  _411
REMARK  172  A    between atoms: _414  and  _416
REMARK  173  A    between atoms: _416  and  _417
REMARK  174  A    between atoms: _419  and  _421
REMARK  175  A    between atoms: _421  and  _422
REMARK  176  A    between atoms: _424  and  _426
REMARK  177  A    between atoms: _426  and  _427
REMARK  178  A    between atoms: _426  and  _429
REMARK  179  A    between atoms: _429  and  _430
REMARK  180  A    between atoms: _433  and  _435
REMARK  181  A    between atoms: _435  and  _436
REMARK  182  A    between atoms: _438  and  _440
REMARK  183  A    between atoms: _440  and  _441
REMARK  184  A    between atoms: _443  and  _445
REMARK  185  A    between atoms: _445  and  _446
REMARK  186  A    between atoms: _445  and  _448
REMARK  187  A    between atoms: _448  and  _449
REMARK  188  A    between atoms: _455  and  _457
REMARK  189  A    between atoms: _457  and  _458
REMARK  190  A    between atoms: _457  and  _460
REMARK  191  A    between atoms: _460  and  _461
REMARK  192  A    between atoms: _464  and  _466
REMARK  193  A    between atoms: _466  and  _467
REMARK  194  A    between atoms: _466  and  _469
REMARK  195  A    between atoms: _472  and  _474
REMARK  196  A    between atoms: _474  and  _475
REMARK  197  A    between atoms: _474  and  _477
REMARK  198  A    between atoms: _477  and  _478
REMARK  199  A    between atoms: _481  and  _483
REMARK  200  A    between atoms: _483  and  _484
REMARK  201  A    between atoms: _483  and  _486
REMARK  202  A    between atoms: _486  and  _487
REMARK  203  A    between atoms: _491  and  _492
REMARK  204  A    between atoms: _497  and  _499
REMARK  205  A    between atoms: _499  and  _500
REMARK  206  A    between atoms: _499  and  _502
REMARK  207  A    between atoms: _505  and  _507
REMARK  208  A    between atoms: _507  and  _508
REMARK  209  A    between atoms: _507  and  _510
REMARK  210  A    between atoms: _510  and  _511
REMARK  211  A    between atoms: _516  and  _518
REMARK  212  A    between atoms: _518  and  _519
REMARK  213  A    between atoms: _518  and  _521
REMARK  214  A    between atoms: _521  and  _522
REMARK  215  A    between atoms: _525  and  _527
REMARK  216  A    between atoms: _527  and  _528
REMARK  217  A    between atoms: _527  and  _530
REMARK  218  A    between atoms: _530  and  _531
REMARK  219  A    between atoms: _534  and  _536
REMARK  220  A    between atoms: _536  and  _537
REMARK  221  A    between atoms: _539  and  _541
REMARK  222  A    between atoms: _541  and  _542
REMARK  223  A    between atoms: _541  and  _544
REMARK  224  A    between atoms: _544  and  _545
REMARK  225  A    between atoms: _545  and  _546
REMARK  226  A    between atoms: _546  and  _547
REMARK  227  A    between atoms: _556  and  _558
REMARK  228  A    between atoms: _558  and  _559
REMARK  229  A    between atoms: _558  and  _561
REMARK  230  A    between atoms: _561  and  _562
REMARK                            x       y       z     vdW  Elec       q    Type
REMARK                         _______ _______ _______ _____ _____    ______ ____
ROOT
ATOM      1  O   HOH     1     -20.222   8.926  27.757  0.00  0.00    +0.000 OA
ENDROOT
TORSDOF 0
REMARK  Name = ../refined-set-2016/2pyn/2pyn_pocket.pdb
REMARK  230 active torsions:
REMARK  status: ('A' for Active; 'I' for Inactive)
REMARK    1  A    between atoms: _1  and  _3
REMARK    2  A    between atoms: _3  and  _4
REMARK    3  A    between atoms: _3  and  _6
REMARK    4  A    between atoms: _6  and  _7
REMARK    5  A    between atoms: _7  and  _8
REMARK    6  A    between atoms: _8  and  _9
REMARK    7  A    between atoms: _18  and  _20
REMARK    8  A    between atoms: _20  and  _21
REMARK    9  A    between atoms: _20  and  _23
REMARK   10  A    between atoms: _23  and  _24
REMARK   11  A    between atoms: _27  and  _29
REMARK   12  A    between atoms: _29  and  _30
REMARK   13  A    between atoms: _29  and  _32
REMARK   14  A    between atoms: _32  and  _33
REMARK   15  A    between atoms: _36  and  _38
REMARK   16  A    between atoms: _38  and  _39
REMARK   17  A    between atoms: _38  and  _41
REMARK   18  A    between atoms: _41  and  _42
REMARK   19  A    between atoms: _45  and  _47
REMARK   20  A    between atoms: _47  and  _48
REMARK   21  A    between atoms: _47  and  _50
REMARK   22  A    between atoms: _50  and  _51
REMARK   23  A    between atoms: _54  and  _56
REMARK   24  A    between atoms: _56  and  _57
REMARK   25  A    between atoms: _59  and  _61
REMARK   26  A    between atoms: _61  and  _62
REMARK   27  A    between atoms: _65  and  _67
REMARK   28  A    between atoms: _67  and  _68
REMARK   29  A    between atoms: _67  and  _70
REMARK   30  A    between atoms: _70  and  _71
REMARK   31  A    between atoms: _74  and  _76
REMARK   32  A    between atoms: _76  and  _77
REMARK   33  A    between atoms: _76  and  _79
REMARK   34  A    between atoms: _79  and  _80
REMARK   35  A    between atoms: _85  and  _87
REMARK   36  A    between atoms: _87  and  _88
REMARK   37  A    between atoms: _87  and  _90
REMARK   38  A    between atoms: _90  and  _91
REMARK   39  A    between atoms: _94  and  _96
REMARK   40  A    between atoms: _96  and  _97
REMARK   41  A    between atoms: _96  and  _99
REMARK   42  A    between atoms: _102  and  _104
REMARK   43  A    between atoms: _104  and  _105
REMARK   44  A    between atoms: _104  and  _107
REMARK   45  A    between atoms: _107  and  _108
REMARK   46  A    between atoms: _108  and  _109
REMARK   47  A    between atoms: _109  and  _110
REMARK   48  A    between atoms: _110  and  _111
REMARK   49  A    between atoms: _115  and  _117
REMARK   50  A    between atoms: _117  and  _118
REMARK   51  A    between atoms: _117  and  _120
REMARK   52  A    between atoms: _120  and  _121
REMARK   53  A    between atoms: _121  and  _122
REMARK   54  A    between atoms: _124  and  _126
REMARK   55  A    between atoms: _126  and  _127
REMARK   56  A    between atoms: _126  and  _129
REMARK   57  A    between atoms: _129  and  _130
REMARK   58  A    between atoms: _133  and  _135
REMARK   59  A    between atoms: _135  and  _136
REMARK   60  A    between atoms: _138  and  _140
REMARK   61  A    between atoms: _140  and  _141
REMARK   62  A    between atoms: _143  and  _145
REMARK   63  A    between atoms: _145  and  _146
REMARK   64  A    between atoms: _145  and  _148
REMARK   65  A    between atoms: _148  and  _149
REMARK   66  A    between atoms: _152  and  _154
REMARK   67  A    between atoms: _154  and  _155
REMARK   68  A    between atoms: _157  and  _159
REMARK   69  A    between atoms: _159  and  _160
REMARK   70  A    between atoms: _162  and  _164
REMARK   71  A    between atoms: _164  and  _165
REMARK   72  A    between atoms: _164  and  _167
REMARK   73  A    between atoms: _167  and  _168
REMARK   74  A    between atoms: _171  and  _173
REMARK   75  A    between atoms: _173  and  _174
REMARK   76  A    between atoms: _173  and  _176
REMARK   77  A    between atoms: _176  and  _177
REMARK   78  A    between atoms: _181  and  _182
REMARK   79  A    between atoms: _187  and  _189
REMARK   80  A    between atoms: _189  and  _190
REMARK   81  A    between atoms: _189  and  _192
REMARK   82  A    between atoms: _192  and  _193
REMARK   83  A    between atoms: _197  and  _198
REMARK   84  A    between atoms: _203  and  _205
REMARK   85  A    between atoms: _205  and  _206
REMARK   86  A    between atoms: _205  and  _208
REMARK   87  A    between atoms: _211  and  _213
REMARK   88  A    between atoms: _213  and  _214
REMARK   89  A    between atoms: _213  and  _216
REMARK   90  A    between atoms: _216  and  _217
REMARK   91  A    between atoms: _222  and  _224
REMARK   92  A    between atoms: _224  and  _225
REMARK   93  A    between atoms: _224  and  _227
REMARK   94  A    between atoms: _227  and  _228
REMARK   95  A    between atoms: _231  and  _233
REMARK   96  A    between atoms: _233  and  _234
REMARK   97  A    between atoms: _233  and  _236
REMARK   98  A    between atoms: _236  and  _237
REMARK   99  A    between atoms: _240  and  _242
REMARK  100  A    between atoms: _242  and  _243
REMARK  101  A    between atoms: _245  and  _247
REMARK  102  A    between atoms: _247  and  _248
REMARK  103  A    between atoms: _247  and  _250
REMARK  104  A    between atoms: _250  and  _251
REMARK  105  A    between atoms: _251  and  _252
REMARK  106  A    between atoms: _252  and  _253
REMARK  107  A    between atoms: _262  and  _264
REMARK  108  A    between atoms: _264  and  _265
REMARK  109  A    between atoms: _264  and  _267
REMARK  110  A    between atoms: _267  and  _268
REMARK  111  A    between atoms: _273  and  _275
REMARK  112  A    between atoms: _275  and  _276
REMARK  113  A    between atoms: _275  and  _278
REMARK  114  A    between atoms: _278  and  _279
REMARK  115  A    between atoms: _279  and  _280
REMARK  116  A    between atoms: _280  and  _281
REMARK  117  A    between atoms: _290  and  _292
REMARK  118  A    between atoms: _292  and  _293
REMARK  119  A    between atoms: _292  and  _295
REMARK  120  A    between atoms: _295  and  _296
REMARK  121  A    between atoms: _299  and  _301
REMARK  122  A    between atoms: _301  and  _302
REMARK  123  A    between atoms: _301  and  _304
REMARK  124  A    between atoms: _304  and  _305
REMARK  125  A    between atoms: _308  and  _310
REMARK  126  A    between atoms: _310  and  _311
REMARK  127  A    between atoms: _310  and  _313
REMARK  128  A    between atoms: _313  and  _314
REMARK  129  A    between atoms: _317  and  _319
REMARK  130  A    between atoms: _319  and  _320
REMARK  131  A    between atoms: _319  and  _322
REMARK  132  A    between atoms: _322  and  _323
REMARK  133  A    between atoms: _326  and  _328
REMARK  134  A    between atoms: _328  and  _329
REMARK  135  A    between atoms: _328  and  _331
REMARK  136  A    between atoms: _331  and  _332
REMARK  137  A    between atoms: _335  and  _337
REMARK  138  A    between atoms: _337  and  _338
REMARK  139  A    between atoms: _340  and  _342
REMARK  140  A    between atoms: _342  and  _343
REMARK  141  A    between atoms: _346  and  _348
REMARK  142  A    between atoms: _348  and  _349
REMARK  143  A    between atoms: _348  and  _351
REMARK  144  A    between atoms: _351  and  _352
REMARK  145  A    between atoms: _355  and  _357
REMARK  146  A    between atoms: _357  and  _358
REMARK  147  A    between atoms: _357  and  _360
REMARK  148  A    between atoms: _360  and  _361
REMARK  149  A    between atoms: _366  and  _368
REMARK  150  A    between atoms: _368  and  _369
REMARK  151  A    between atoms: _368  and  _371
REMARK  152  A    between atoms: _371  and  _372
REMARK  153  A    between atoms: _375  and  _377
REMARK  154  A    between atoms: _377  and  _378
REMARK  155  A    between atoms: _377  and  _380
REMARK  156  A    between atoms: _383  and  _385
REMARK  157  A    between atoms: _385  and  _386
REMARK  158  A    between atoms: _385  and  _388
REMARK  159  A    between atoms: _388  and  _389
REMARK  160  A    between atoms: _389  and  _390
REMARK  161  A    between atoms: _390  and  _391
REMARK  162  A    between atoms: _391  and  _392
REMARK  163  A    between atoms: _396  and  _398
REMARK  164  A    between atoms: _398  and  _399
REMARK  165  A    between atoms: _398  and  _401
REMARK  166  A    between atoms: _401  and  _402
REMARK  167  A    between atoms: _402  and  _403
REMARK  168  A    between atoms: _405  and  _407
REMARK  169  A    between atoms: _407  and  _408
REMARK  170  A    between atoms: _407  and  _410
REMARK  171  A    between atoms: _410  and  _411
REMARK  172  A    between atoms: _414  and  _416
REMARK  173  A    between atoms: _416  and  _417
REMARK  174  A    between atoms: _419  and  _421
REMARK  175  A    between atoms: _421  and  _422
REMARK  176  A    between atoms: _424  and  _426
REMARK  177  A    between atoms: _426  and  _427
REMARK  178  A    between atoms: _426  and  _429
REMARK  179  A    between atoms: _429  and  _430
REMARK  180  A    between atoms: _433  and  _435
REMARK  181  A    between atoms: _435  and  _436
REMARK  182  A    between atoms: _438  and  _440
REMARK  183  A    between atoms: _440  and  _441
REMARK  184  A    between atoms: _443  and  _445
REMARK  185  A    between atoms: _445  and  _446
REMARK  186  A    between atoms: _445  and  _448
REMARK  187  A    between atoms: _448  and  _449
REMARK  188  A    between atoms: _455  and  _457
REMARK  189  A    between atoms: _457  and  _458
REMARK  190  A    between atoms: _457  and  _460
REMARK  191  A    between atoms: _460  and  _461
REMARK  192  A    between atoms: _464  and  _466
REMARK  193  A    between atoms: _466  and  _467
REMARK  194  A    between atoms: _466  and  _469
REMARK  195  A    between atoms: _472  and  _474
REMARK  196  A    between atoms: _474  and  _475
REMARK  197  A    between atoms: _474  and  _477
REMARK  198  A    between atoms: _477  and  _478
REMARK  199  A    between atoms: _481  and  _483
REMARK  200  A    between atoms: _483  and  _484
REMARK  201  A    between atoms: _483  and  _486
REMARK  202  A    between atoms: _486  and  _487
REMARK  203  A    between atoms: _491  and  _492
REMARK  204  A    between atoms: _497  and  _499
REMARK  205  A    between atoms: _499  and  _500
REMARK  206  A    between atoms: _499  and  _502
REMARK  207  A    between atoms: _505  and  _507
REMARK  208  A    between atoms: _507  and  _508
REMARK  209  A    between atoms: _507  and  _510
REMARK  210  A    between atoms: _510  and  _511
REMARK  211  A    between atoms: _516  and  _518
REMARK  212  A    between atoms: _518  and  _519
REMARK  213  A    between atoms: _518  and  _521
REMARK  214  A    between atoms: _521  and  _522
REMARK  215  A    between atoms: _525  and  _527
REMARK  216  A    between atoms: _527  and  _528
REMARK  217  A    between atoms: _527  and  _530
REMARK  218  A    between atoms: _530  and  _531
REMARK  219  A    between atoms: _534  and  _536
REMARK  220  A    between atoms: _536  and  _537
REMARK  221  A    between atoms: _539  and  _541
REMARK  222  A    between atoms: _541  and  _542
REMARK  223  A    between atoms: _541  and  _544
REMARK  224  A    between atoms: _544  and  _545
REMARK  225  A    between atoms: _545  and  _546
REMARK  226  A    between atoms: _546  and  _547
REMARK  227  A    between atoms: _556  and  _558
REMARK  228  A    between atoms: _558  and  _559
REMARK  229  A    between atoms: _558  and  _561
REMARK  230  A    between atoms: _561  and  _562
REMARK                            x       y       z     vdW  Elec       q    Type
REMARK                         _______ _______ _______ _____ _____    ______ ____
ROOT
ATOM      1  O   HOH     1      -1.023  12.534  24.564  0.00  0.00    +0.000 OA
ENDROOT
TORSDOF 0
REMARK  Name = ../refined-set-2016/2pyn/2pyn_pocket.pdb
REMARK  230 active torsions:
REMARK  status: ('A' for Active; 'I' for Inactive)
REMARK    1  A    between atoms: _1  and  _3
REMARK    2  A    between atoms: _3  and  _4
REMARK    3  A    between atoms: _3  and  _6
REMARK    4  A    between atoms: _6  and  _7
REMARK    5  A    between atoms: _7  and  _8
REMARK    6  A    between atoms: _8  and  _9
REMARK    7  A    between atoms: _18  and  _20
REMARK    8  A    between atoms: _20  and  _21
REMARK    9  A    between atoms: _20  and  _23
REMARK   10  A    between atoms: _23  and  _24
REMARK   11  A    between atoms: _27  and  _29
REMARK   12  A    between atoms: _29  and  _30
REMARK   13  A    between atoms: _29  and  _32
REMARK   14  A    between atoms: _32  and  _33
REMARK   15  A    between atoms: _36  and  _38
REMARK   16  A    between atoms: _38  and  _39
REMARK   17  A    between atoms: _38  and  _41
REMARK   18  A    between atoms: _41  and  _42
REMARK   19  A    between atoms: _45  and  _47
REMARK   20  A    between atoms: _47  and  _48
REMARK   21  A    between atoms: _47  and  _50
REMARK   22  A    between atoms: _50  and  _51
REMARK   23  A    between atoms: _54  and  _56
REMARK   24  A    between atoms: _56  and  _57
REMARK   25  A    between atoms: _59  and  _61
REMARK   26  A    between atoms: _61  and  _62
REMARK   27  A    between atoms: _65  and  _67
REMARK   28  A    between atoms: _67  and  _68
REMARK   29  A    between atoms: _67  and  _70
REMARK   30  A    between atoms: _70  and  _71
REMARK   31  A    between atoms: _74  and  _76
REMARK   32  A    between atoms: _76  and  _77
REMARK   33  A    between atoms: _76  and  _79
REMARK   34  A    between atoms: _79  and  _80
REMARK   35  A    between atoms: _85  and  _87
REMARK   36  A    between atoms: _87  and  _88
REMARK   37  A    between atoms: _87  and  _90
REMARK   38  A    between atoms: _90  and  _91
REMARK   39  A    between atoms: _94  and  _96
REMARK   40  A    between atoms: _96  and  _97
REMARK   41  A    between atoms: _96  and  _99
REMARK   42  A    between atoms: _102  and  _104
REMARK   43  A    between atoms: _104  and  _105
REMARK   44  A    between atoms: _104  and  _107
REMARK   45  A    between atoms: _107  and  _108
REMARK   46  A    between atoms: _108  and  _109
REMARK   47  A    between atoms: _109  and  _110
REMARK   48  A    between atoms: _110  and  _111
REMARK   49  A    between atoms: _115  and  _117
REMARK   50  A    between atoms: _117  and  _118
REMARK   51  A    between atoms: _117  and  _120
REMARK   52  A    between atoms: _120  and  _121
REMARK   53  A    between atoms: _121  and  _122
REMARK   54  A    between atoms: _124  and  _126
REMARK   55  A    between atoms: _126  and  _127
REMARK   56  A    between atoms: _126  and  _129
REMARK   57  A    between atoms: _129  and  _130
REMARK   58  A    between atoms: _133  and  _135
REMARK   59  A    between atoms: _135  and  _136
REMARK   60  A    between atoms: _138  and  _140
REMARK   61  A    between atoms: _140  and  _141
REMARK   62  A    between atoms: _143  and  _145
REMARK   63  A    between atoms: _145  and  _146
REMARK   64  A    between atoms: _145  and  _148
REMARK   65  A    between atoms: _148  and  _149
REMARK   66  A    between atoms: _152  and  _154
REMARK   67  A    between atoms: _154  and  _155
REMARK   68  A    between atoms: _157  and  _159
REMARK   69  A    between atoms: _159  and  _160
REMARK   70  A    between atoms: _162  and  _164
REMARK   71  A    between atoms: _164  and  _165
REMARK   72  A    between atoms: _164  and  _167
REMARK   73  A    between atoms: _167  and  _168
REMARK   74  A    between atoms: _171  and  _173
REMARK   75  A    between atoms: _173  and  _174
REMARK   76  A    between atoms: _173  and  _176
REMARK   77  A    between atoms: _176  and  _177
REMARK   78  A    between atoms: _181  and  _182
REMARK   79  A    between atoms: _187  and  _189
REMARK   80  A    between atoms: _189  and  _190
REMARK   81  A    between atoms: _189  and  _192
REMARK   82  A    between atoms: _192  and  _193
REMARK   83  A    between atoms: _197  and  _198
REMARK   84  A    between atoms: _203  and  _205
REMARK   85  A    between atoms: _205  and  _206
REMARK   86  A    between atoms: _205  and  _208
REMARK   87  A    between atoms: _211  and  _213
REMARK   88  A    between atoms: _213  and  _214
REMARK   89  A    between atoms: _213  and  _216
REMARK   90  A    between atoms: _216  and  _217
REMARK   91  A    between atoms: _222  and  _224
REMARK   92  A    between atoms: _224  and  _225
REMARK   93  A    between atoms: _224  and  _227
REMARK   94  A    between atoms: _227  and  _228
REMARK   95  A    between atoms: _231  and  _233
REMARK   96  A    between atoms: _233  and  _234
REMARK   97  A    between atoms: _233  and  _236
REMARK   98  A    between atoms: _236  and  _237
REMARK   99  A    between atoms: _240  and  _242
REMARK  100  A    between atoms: _242  and  _243
REMARK  101  A    between atoms: _245  and  _247
REMARK  102  A    between atoms: _247  and  _248
REMARK  103  A    between atoms: _247  and  _250
REMARK  104  A    between atoms: _250  and  _251
REMARK  105  A    between atoms: _251  and  _252
REMARK  106  A    between atoms: _252  and  _253
REMARK  107  A    between atoms: _262  and  _264
REMARK  108  A    between atoms: _264  and  _265
REMARK  109  A    between atoms: _264  and  _267
REMARK  110  A    between atoms: _267  and  _268
REMARK  111  A    between atoms: _273  and  _275
REMARK  112  A    between atoms: _275  and  _276
REMARK  113  A    between atoms: _275  and  _278
REMARK  114  A    between atoms: _278  and  _279
REMARK  115  A    between atoms: _279  and  _280
REMARK  116  A    between atoms: _280  and  _281
REMARK  117  A    between atoms: _290  and  _292
REMARK  118  A    between atoms: _292  and  _293
REMARK  119  A    between atoms: _292  and  _295
REMARK  120  A    between atoms: _295  and  _296
REMARK  121  A    between atoms: _299  and  _301
REMARK  122  A    between atoms: _301  and  _302
REMARK  123  A    between atoms: _301  and  _304
REMARK  124  A    between atoms: _304  and  _305
REMARK  125  A    between atoms: _308  and  _310
REMARK  126  A    between atoms: _310  and  _311
REMARK  127  A    between atoms: _310  and  _313
REMARK  128  A    between atoms: _313  and  _314
REMARK  129  A    between atoms: _317  and  _319
REMARK  130  A    between atoms: _319  and  _320
REMARK  131  A    between atoms: _319  and  _322
REMARK  132  A    between atoms: _322  and  _323
REMARK  133  A    between atoms: _326  and  _328
REMARK  134  A    between atoms: _328  and  _329
REMARK  135  A    between atoms: _328  and  _331
REMARK  136  A    between atoms: _331  and  _332
REMARK  137  A    between atoms: _335  and  _337
REMARK  138  A    between atoms: _337  and  _338
REMARK  139  A    between atoms: _340  and  _342
REMARK  140  A    between atoms: _342  and  _343
REMARK  141  A    between atoms: _346  and  _348
REMARK  142  A    between atoms: _348  and  _349
REMARK  143  A    between atoms: _348  and  _351
REMARK  144  A    between atoms: _351  and  _352
REMARK  145  A    between atoms: _355  and  _357
REMARK  146  A    between atoms: _357  and  _358
REMARK  147  A    between atoms: _357  and  _360
REMARK  148  A    between atoms: _360  and  _361
REMARK  149  A    between atoms: _366  and  _368
REMARK  150  A    between atoms: _368  and  _369
REMARK  151  A    between atoms: _368  and  _371
REMARK  152  A    between atoms: _371  and  _372
REMARK  153  A    between atoms: _375  and  _377
REMARK  154  A    between atoms: _377  and  _378
REMARK  155  A    between atoms: _377  and  _380
REMARK  156  A    between atoms: _383  and  _385
REMARK  157  A    between atoms: _385  and  _386
REMARK  158  A    between atoms: _385  and  _388
REMARK  159  A    between atoms: _388  and  _389
REMARK  160  A    between atoms: _389  and  _390
REMARK  161  A    between atoms: _390  and  _391
REMARK  162  A    between atoms: _391  and  _392
REMARK  163  A    between atoms: _396  and  _398
REMARK  164  A    between atoms: _398  and  _399
REMARK  165  A    between atoms: _398  and  _401
REMARK  166  A    between atoms: _401  and  _402
REMARK  167  A    between atoms: _402  and  _403
REMARK  168  A    between atoms: _405  and  _407
REMARK  169  A    between atoms: _407  and  _408
REMARK  170  A    between atoms: _407  and  _410
REMARK  171  A    between atoms: _410  and  _411
REMARK  172  A    between atoms: _414  and  _416
REMARK  173  A    between atoms: _416  and  _417
REMARK  174  A    between atoms: _419  and  _421
REMARK  175  A    between atoms: _421  and  _422
REMARK  176  A    between atoms: _424  and  _426
REMARK  177  A    between atoms: _426  and  _427
REMARK  178  A    between atoms: _426  and  _429
REMARK  179  A    between atoms: _429  and  _430
REMARK  180  A    between atoms: _433  and  _435
REMARK  181  A    between atoms: _435  and  _436
REMARK  182  A    between atoms: _438  and  _440
REMARK  183  A    between atoms: _440  and  _441
REMARK  184  A    between atoms: _443  and  _445
REMARK  185  A    between atoms: _445  and  _446
REMARK  186  A    between atoms: _445  and  _448
REMARK  187  A    between atoms: _448  and  _449
REMARK  188  A    between atoms: _455  and  _457
REMARK  189  A    between atoms: _457  and  _458
REMARK  190  A    between atoms: _457  and  _460
REMARK  191  A    between atoms: _460  and  _461
REMARK  192  A    between atoms: _464  and  _466
REMARK  193  A    between atoms: _466  and  _467
REMARK  194  A    between atoms: _466  and  _469
REMARK  195  A    between atoms: _472  and  _474
REMARK  196  A    between atoms: _474  and  _475
REMARK  197  A    between atoms: _474  and  _477
REMARK  198  A    between atoms: _477  and  _478
REMARK  199  A    between atoms: _481  and  _483
REMARK  200  A    between atoms: _483  and  _484
REMARK  201  A    between atoms: _483  and  _486
REMARK  202  A    between atoms: _486  and  _487
REMARK  203  A    between atoms: _491  and  _492
REMARK  204  A    between atoms: _497  and  _499
REMARK  205  A    between atoms: _499  and  _500
REMARK  206  A    between atoms: _499  and  _502
REMARK  207  A    between atoms: _505  and  _507
REMARK  208  A    between atoms: _507  and  _508
REMARK  209  A    between atoms: _507  and  _510
REMARK  210  A    between atoms: _510  and  _511
REMARK  211  A    between atoms: _516  and  _518
REMARK  212  A    between atoms: _518  and  _519
REMARK  213  A    between atoms: _518  and  _521
REMARK  214  A    between atoms: _521  and  _522
REMARK  215  A    between atoms: _525  and  _527
REMARK  216  A    between atoms: _527  and  _528
REMARK  217  A    between atoms: _527  and  _530
REMARK  218  A    between atoms: _530  and  _531
REMARK  219  A    between atoms: _534  and  _536
REMARK  220  A    between atoms: _536  and  _537
REMARK  221  A    between atoms: _539  and  _541
REMARK  222  A    between atoms: _541  and  _542
REMARK  223  A    between atoms: _541  and  _544
REMARK  224  A    between atoms: _544  and  _545
REMARK  225  A    between atoms: _545  and  _546
REMARK  226  A    between atoms: _546  and  _547
REMARK  227  A    between atoms: _556  and  _558
REMARK  228  A    between atoms: _558  and  _559
REMARK  229  A    between atoms: _558  and  _561
REMARK  230  A    between atoms: _561  and  _562
REMARK                            x       y       z     vdW  Elec       q    Type
REMARK                         _______ _______ _______ _____ _____    ______ ____
ROOT
ATOM      1  O   HOH     1      -0.785  14.922  22.771  0.00  0.00    +0.000 OA
ENDROOT
TORSDOF 0
REMARK  Name = ../refined-set-2016/2pyn/2pyn_pocket.pdb
REMARK  230 active torsions:
REMARK  status: ('A' for Active; 'I' for Inactive)
REMARK    1  A    between atoms: _1  and  _3
REMARK    2  A    between atoms: _3  and  _4
REMARK    3  A    between atoms: _3  and  _6
REMARK    4  A    between atoms: _6  and  _7
REMARK    5  A    between atoms: _7  and  _8
REMARK    6  A    between atoms: _8  and  _9
REMARK    7  A    between atoms: _18  and  _20
REMARK    8  A    between atoms: _20  and  _21
REMARK    9  A    between atoms: _20  and  _23
REMARK   10  A    between atoms: _23  and  _24
REMARK   11  A    between atoms: _27  and  _29
REMARK   12  A    between atoms: _29  and  _30
REMARK   13  A    between atoms: _29  and  _32
REMARK   14  A    between atoms: _32  and  _33
REMARK   15  A    between atoms: _36  and  _38
REMARK   16  A    between atoms: _38  and  _39
REMARK   17  A    between atoms: _38  and  _41
REMARK   18  A    between atoms: _41  and  _42
REMARK   19  A    between atoms: _45  and  _47
REMARK   20  A    between atoms: _47  and  _48
REMARK   21  A    between atoms: _47  and  _50
REMARK   22  A    between atoms: _50  and  _51
REMARK   23  A    between atoms: _54  and  _56
REMARK   24  A    between atoms: _56  and  _57
REMARK   25  A    between atoms: _59  and  _61
REMARK   26  A    between atoms: _61  and  _62
REMARK   27  A    between atoms: _65  and  _67
REMARK   28  A    between atoms: _67  and  _68
REMARK   29  A    between atoms: _67  and  _70
REMARK   30  A    between atoms: _70  and  _71
REMARK   31  A    between atoms: _74  and  _76
REMARK   32  A    between atoms: _76  and  _77
REMARK   33  A    between atoms: _76  and  _79
REMARK   34  A    between atoms: _79  and  _80
REMARK   35  A    between atoms: _85  and  _87
REMARK   36  A    between atoms: _87  and  _88
REMARK   37  A    between atoms: _87  and  _90
REMARK   38  A    between atoms: _90  and  _91
REMARK   39  A    between atoms: _94  and  _96
REMARK   40  A    between atoms: _96  and  _97
REMARK   41  A    between atoms: _96  and  _99
REMARK   42  A    between atoms: _102  and  _104
REMARK   43  A    between atoms: _104  and  _105
REMARK   44  A    between atoms: _104  and  _107
REMARK   45  A    between atoms: _107  and  _108
REMARK   46  A    between atoms: _108  and  _109
REMARK   47  A    between atoms: _109  and  _110
REMARK   48  A    between atoms: _110  and  _111
REMARK   49  A    between atoms: _115  and  _117
REMARK   50  A    between atoms: _117  and  _118
REMARK   51  A    between atoms: _117  and  _120
REMARK   52  A    between atoms: _120  and  _121
REMARK   53  A    between atoms: _121  and  _122
REMARK   54  A    between atoms: _124  and  _126
REMARK   55  A    between atoms: _126  and  _127
REMARK   56  A    between atoms: _126  and  _129
REMARK   57  A    between atoms: _129  and  _130
REMARK   58  A    between atoms: _133  and  _135
REMARK   59  A    between atoms: _135  and  _136
REMARK   60  A    between atoms: _138  and  _140
REMARK   61  A    between atoms: _140  and  _141
REMARK   62  A    between atoms: _143  and  _145
REMARK   63  A    between atoms: _145  and  _146
REMARK   64  A    between atoms: _145  and  _148
REMARK   65  A    between atoms: _148  and  _149
REMARK   66  A    between atoms: _152  and  _154
REMARK   67  A    between atoms: _154  and  _155
REMARK   68  A    between atoms: _157  and  _159
REMARK   69  A    between atoms: _159  and  _160
REMARK   70  A    between atoms: _162  and  _164
REMARK   71  A    between atoms: _164  and  _165
REMARK   72  A    between atoms: _164  and  _167
REMARK   73  A    between atoms: _167  and  _168
REMARK   74  A    between atoms: _171  and  _173
REMARK   75  A    between atoms: _173  and  _174
REMARK   76  A    between atoms: _173  and  _176
REMARK   77  A    between atoms: _176  and  _177
REMARK   78  A    between atoms: _181  and  _182
REMARK   79  A    between atoms: _187  and  _189
REMARK   80  A    between atoms: _189  and  _190
REMARK   81  A    between atoms: _189  and  _192
REMARK   82  A    between atoms: _192  and  _193
REMARK   83  A    between atoms: _197  and  _198
REMARK   84  A    between atoms: _203  and  _205
REMARK   85  A    between atoms: _205  and  _206
REMARK   86  A    between atoms: _205  and  _208
REMARK   87  A    between atoms: _211  and  _213
REMARK   88  A    between atoms: _213  and  _214
REMARK   89  A    between atoms: _213  and  _216
REMARK   90  A    between atoms: _216  and  _217
REMARK   91  A    between atoms: _222  and  _224
REMARK   92  A    between atoms: _224  and  _225
REMARK   93  A    between atoms: _224  and  _227
REMARK   94  A    between atoms: _227  and  _228
REMARK   95  A    between atoms: _231  and  _233
REMARK   96  A    between atoms: _233  and  _234
REMARK   97  A    between atoms: _233  and  _236
REMARK   98  A    between atoms: _236  and  _237
REMARK   99  A    between atoms: _240  and  _242
REMARK  100  A    between atoms: _242  and  _243
REMARK  101  A    between atoms: _245  and  _247
REMARK  102  A    between atoms: _247  and  _248
REMARK  103  A    between atoms: _247  and  _250
REMARK  104  A    between atoms: _250  and  _251
REMARK  105  A    between atoms: _251  and  _252
REMARK  106  A    between atoms: _252  and  _253
REMARK  107  A    between atoms: _262  and  _264
REMARK  108  A    between atoms: _264  and  _265
REMARK  109  A    between atoms: _264  and  _267
REMARK  110  A    between atoms: _267  and  _268
REMARK  111  A    between atoms: _273  and  _275
REMARK  112  A    between atoms: _275  and  _276
REMARK  113  A    between atoms: _275  and  _278
REMARK  114  A    between atoms: _278  and  _279
REMARK  115  A    between atoms: _279  and  _280
REMARK  116  A    between atoms: _280  and  _281
REMARK  117  A    between atoms: _290  and  _292
REMARK  118  A    between atoms: _292  and  _293
REMARK  119  A    between atoms: _292  and  _295
REMARK  120  A    between atoms: _295  and  _296
REMARK  121  A    between atoms: _299  and  _301
REMARK  122  A    between atoms: _301  and  _302
REMARK  123  A    between atoms: _301  and  _304
REMARK  124  A    between atoms: _304  and  _305
REMARK  125  A    between atoms: _308  and  _310
REMARK  126  A    between atoms: _310  and  _311
REMARK  127  A    between atoms: _310  and  _313
REMARK  128  A    between atoms: _313  and  _314
REMARK  129  A    between atoms: _317  and  _319
REMARK  130  A    between atoms: _319  and  _320
REMARK  131  A    between atoms: _319  and  _322
REMARK  132  A    between atoms: _322  and  _323
REMARK  133  A    between atoms: _326  and  _328
REMARK  134  A    between atoms: _328  and  _329
REMARK  135  A    between atoms: _328  and  _331
REMARK  136  A    between atoms: _331  and  _332
REMARK  137  A    between atoms: _335  and  _337
REMARK  138  A    between atoms: _337  and  _338
REMARK  139  A    between atoms: _340  and  _342
REMARK  140  A    between atoms: _342  and  _343
REMARK  141  A    between atoms: _346  and  _348
REMARK  142  A    between atoms: _348  and  _349
REMARK  143  A    between atoms: _348  and  _351
REMARK  144  A    between atoms: _351  and  _352
REMARK  145  A    between atoms: _355  and  _357
REMARK  146  A    between atoms: _357  and  _358
REMARK  147  A    between atoms: _357  and  _360
REMARK  148  A    between atoms: _360  and  _361
REMARK  149  A    between atoms: _366  and  _368
REMARK  150  A    between atoms: _368  and  _369
REMARK  151  A    between atoms: _368  and  _371
REMARK  152  A    between atoms: _371  and  _372
REMARK  153  A    between atoms: _375  and  _377
REMARK  154  A    between atoms: _377  and  _378
REMARK  155  A    between atoms: _377  and  _380
REMARK  156  A    between atoms: _383  and  _385
REMARK  157  A    between atoms: _385  and  _386
REMARK  158  A    between atoms: _385  and  _388
REMARK  159  A    between atoms: _388  and  _389
REMARK  160  A    between atoms: _389  and  _390
REMARK  161  A    between atoms: _390  and  _391
REMARK  162  A    between atoms: _391  and  _392
REMARK  163  A    between atoms: _396  and  _398
REMARK  164  A    between atoms: _398  and  _399
REMARK  165  A    between atoms: _398  and  _401
REMARK  166  A    between atoms: _401  and  _402
REMARK  167  A    between atoms: _402  and  _403
REMARK  168  A    between atoms: _405  and  _407
REMARK  169  A    between atoms: _407  and  _408
REMARK  170  A    between atoms: _407  and  _410
REMARK  171  A    between atoms: _410  and  _411
REMARK  172  A    between atoms: _414  and  _416
REMARK  173  A    between atoms: _416  and  _417
REMARK  174  A    between atoms: _419  and  _421
REMARK  175  A    between atoms: _421  and  _422
REMARK  176  A    between atoms: _424  and  _426
REMARK  177  A    between atoms: _426  and  _427
REMARK  178  A    between atoms: _426  and  _429
REMARK  179  A    between atoms: _429  and  _430
REMARK  180  A    between atoms: _433  and  _435
REMARK  181  A    between atoms: _435  and  _436
REMARK  182  A    between atoms: _438  and  _440
REMARK  183  A    between atoms: _440  and  _441
REMARK  184  A    between atoms: _443  and  _445
REMARK  185  A    between atoms: _445  and  _446
REMARK  186  A    between atoms: _445  and  _448
REMARK  187  A    between atoms: _448  and  _449
REMARK  188  A    between atoms: _455  and  _457
REMARK  189  A    between atoms: _457  and  _458
REMARK  190  A    between atoms: _457  and  _460
REMARK  191  A    between atoms: _460  and  _461
REMARK  192  A    between atoms: _464  and  _466
REMARK  193  A    between atoms: _466  and  _467
REMARK  194  A    between atoms: _466  and  _469
REMARK  195  A    between atoms: _472  and  _474
REMARK  196  A    between atoms: _474  and  _475
REMARK  197  A    between atoms: _474  and  _477
REMARK  198  A    between atoms: _477  and  _478
REMARK  199  A    between atoms: _481  and  _483
REMARK  200  A    between atoms: _483  and  _484
REMARK  201  A    between atoms: _483  and  _486
REMARK  202  A    between atoms: _486  and  _487
REMARK  203  A    between atoms: _491  and  _492
REMARK  204  A    between atoms: _497  and  _499
REMARK  205  A    between atoms: _499  and  _500
REMARK  206  A    between atoms: _499  and  _502
REMARK  207  A    between atoms: _505  and  _507
REMARK  208  A    between atoms: _507  and  _508
REMARK  209  A    between atoms: _507  and  _510
REMARK  210  A    between atoms: _510  and  _511
REMARK  211  A    between atoms: _516  and  _518
REMARK  212  A    between atoms: _518  and  _519
REMARK  213  A    between atoms: _518  and  _521
REMARK  214  A    between atoms: _521  and  _522
REMARK  215  A    between atoms: _525  and  _527
REMARK  216  A    between atoms: _527  and  _528
REMARK  217  A    between atoms: _527  and  _530
REMARK  218  A    between atoms: _530  and  _531
REMARK  219  A    between atoms: _534  and  _536
REMARK  220  A    between atoms: _536  and  _537
REMARK  221  A    between atoms: _539  and  _541
REMARK  222  A    between atoms: _541  and  _542
REMARK  223  A    between atoms: _541  and  _544
REMARK  224  A    between atoms: _544  and  _545
REMARK  225  A    between atoms: _545  and  _546
REMARK  226  A    between atoms: _546  and  _547
REMARK  227  A    between atoms: _556  and  _558
REMARK  228  A    between atoms: _558  and  _559
REMARK  229  A    between atoms: _558  and  _561
REMARK  230  A    between atoms: _561  and  _562
REMARK                            x       y       z     vdW  Elec       q    Type
REMARK                         _______ _______ _______ _____ _____    ______ ____
ROOT
ATOM      1  O   HOH     1      -6.169  22.476  15.610  0.00  0.00    +0.000 OA
ENDROOT
TORSDOF 0
REMARK  Name = ../refined-set-2016/2pyn/2pyn_pocket.pdb
REMARK  230 active torsions:
REMARK  status: ('A' for Active; 'I' for Inactive)
REMARK    1  A    between atoms: _1  and  _3
REMARK    2  A    between atoms: _3  and  _4
REMARK    3  A    between atoms: _3  and  _6
REMARK    4  A    between atoms: _6  and  _7
REMARK    5  A    between atoms: _7  and  _8
REMARK    6  A    between atoms: _8  and  _9
REMARK    7  A    between atoms: _18  and  _20
REMARK    8  A    between atoms: _20  and  _21
REMARK    9  A    between atoms: _20  and  _23
REMARK   10  A    between atoms: _23  and  _24
REMARK   11  A    between atoms: _27  and  _29
REMARK   12  A    between atoms: _29  and  _30
REMARK   13  A    between atoms: _29  and  _32
REMARK   14  A    between atoms: _32  and  _33
REMARK   15  A    between atoms: _36  and  _38
REMARK   16  A    between atoms: _38  and  _39
REMARK   17  A    between atoms: _38  and  _41
REMARK   18  A    between atoms: _41  and  _42
REMARK   19  A    between atoms: _45  and  _47
REMARK   20  A    between atoms: _47  and  _48
REMARK   21  A    between atoms: _47  and  _50
REMARK   22  A    between atoms: _50  and  _51
REMARK   23  A    between atoms: _54  and  _56
REMARK   24  A    between atoms: _56  and  _57
REMARK   25  A    between atoms: _59  and  _61
REMARK   26  A    between atoms: _61  and  _62
REMARK   27  A    between atoms: _65  and  _67
REMARK   28  A    between atoms: _67  and  _68
REMARK   29  A    between atoms: _67  and  _70
REMARK   30  A    between atoms: _70  and  _71
REMARK   31  A    between atoms: _74  and  _76
REMARK   32  A    between atoms: _76  and  _77
REMARK   33  A    between atoms: _76  and  _79
REMARK   34  A    between atoms: _79  and  _80
REMARK   35  A    between atoms: _85  and  _87
REMARK   36  A    between atoms: _87  and  _88
REMARK   37  A    between atoms: _87  and  _90
REMARK   38  A    between atoms: _90  and  _91
REMARK   39  A    between atoms: _94  and  _96
REMARK   40  A    between atoms: _96  and  _97
REMARK   41  A    between atoms: _96  and  _99
REMARK   42  A    between atoms: _102  and  _104
REMARK   43  A    between atoms: _104  and  _105
REMARK   44  A    between atoms: _104  and  _107
REMARK   45  A    between atoms: _107  and  _108
REMARK   46  A    between atoms: _108  and  _109
REMARK   47  A    between atoms: _109  and  _110
REMARK   48  A    between atoms: _110  and  _111
REMARK   49  A    between atoms: _115  and  _117
REMARK   50  A    between atoms: _117  and  _118
REMARK   51  A    between atoms: _117  and  _120
REMARK   52  A    between atoms: _120  and  _121
REMARK   53  A    between atoms: _121  and  _122
REMARK   54  A    between atoms: _124  and  _126
REMARK   55  A    between atoms: _126  and  _127
REMARK   56  A    between atoms: _126  and  _129
REMARK   57  A    between atoms: _129  and  _130
REMARK   58  A    between atoms: _133  and  _135
REMARK   59  A    between atoms: _135  and  _136
REMARK   60  A    between atoms: _138  and  _140
REMARK   61  A    between atoms: _140  and  _141
REMARK   62  A    between atoms: _143  and  _145
REMARK   63  A    between atoms: _145  and  _146
REMARK   64  A    between atoms: _145  and  _148
REMARK   65  A    between atoms: _148  and  _149
REMARK   66  A    between atoms: _152  and  _154
REMARK   67  A    between atoms: _154  and  _155
REMARK   68  A    between atoms: _157  and  _159
REMARK   69  A    between atoms: _159  and  _160
REMARK   70  A    between atoms: _162  and  _164
REMARK   71  A    between atoms: _164  and  _165
REMARK   72  A    between atoms: _164  and  _167
REMARK   73  A    between atoms: _167  and  _168
REMARK   74  A    between atoms: _171  and  _173
REMARK   75  A    between atoms: _173  and  _174
REMARK   76  A    between atoms: _173  and  _176
REMARK   77  A    between atoms: _176  and  _177
REMARK   78  A    between atoms: _181  and  _182
REMARK   79  A    between atoms: _187  and  _189
REMARK   80  A    between atoms: _189  and  _190
REMARK   81  A    between atoms: _189  and  _192
REMARK   82  A    between atoms: _192  and  _193
REMARK   83  A    between atoms: _197  and  _198
REMARK   84  A    between atoms: _203  and  _205
REMARK   85  A    between atoms: _205  and  _206
REMARK   86  A    between atoms: _205  and  _208
REMARK   87  A    between atoms: _211  and  _213
REMARK   88  A    between atoms: _213  and  _214
REMARK   89  A    between atoms: _213  and  _216
REMARK   90  A    between atoms: _216  and  _217
REMARK   91  A    between atoms: _222  and  _224
REMARK   92  A    between atoms: _224  and  _225
REMARK   93  A    between atoms: _224  and  _227
REMARK   94  A    between atoms: _227  and  _228
REMARK   95  A    between atoms: _231  and  _233
REMARK   96  A    between atoms: _233  and  _234
REMARK   97  A    between atoms: _233  and  _236
REMARK   98  A    between atoms: _236  and  _237
REMARK   99  A    between atoms: _240  and  _242
REMARK  100  A    between atoms: _242  and  _243
REMARK  101  A    between atoms: _245  and  _247
REMARK  102  A    between atoms: _247  and  _248
REMARK  103  A    between atoms: _247  and  _250
REMARK  104  A    between atoms: _250  and  _251
REMARK  105  A    between atoms: _251  and  _252
REMARK  106  A    between atoms: _252  and  _253
REMARK  107  A    between atoms: _262  and  _264
REMARK  108  A    between atoms: _264  and  _265
REMARK  109  A    between atoms: _264  and  _267
REMARK  110  A    between atoms: _267  and  _268
REMARK  111  A    between atoms: _273  and  _275
REMARK  112  A    between atoms: _275  and  _276
REMARK  113  A    between atoms: _275  and  _278
REMARK  114  A    between atoms: _278  and  _279
REMARK  115  A    between atoms: _279  and  _280
REMARK  116  A    between atoms: _280  and  _281
REMARK  117  A    between atoms: _290  and  _292
REMARK  118  A    between atoms: _292  and  _293
REMARK  119  A    between atoms: _292  and  _295
REMARK  120  A    between atoms: _295  and  _296
REMARK  121  A    between atoms: _299  and  _301
REMARK  122  A    between atoms: _301  and  _302
REMARK  123  A    between atoms: _301  and  _304
REMARK  124  A    between atoms: _304  and  _305
REMARK  125  A    between atoms: _308  and  _310
REMARK  126  A    between atoms: _310  and  _311
REMARK  127  A    between atoms: _310  and  _313
REMARK  128  A    between atoms: _313  and  _314
REMARK  129  A    between atoms: _317  and  _319
REMARK  130  A    between atoms: _319  and  _320
REMARK  131  A    between atoms: _319  and  _322
REMARK  132  A    between atoms: _322  and  _323
REMARK  133  A    between atoms: _326  and  _328
REMARK  134  A    between atoms: _328  and  _329
REMARK  135  A    between atoms: _328  and  _331
REMARK  136  A    between atoms: _331  and  _332
REMARK  137  A    between atoms: _335  and  _337
REMARK  138  A    between atoms: _337  and  _338
REMARK  139  A    between atoms: _340  and  _342
REMARK  140  A    between atoms: _342  and  _343
REMARK  141  A    between atoms: _346  and  _348
REMARK  142  A    between atoms: _348  and  _349
REMARK  143  A    between atoms: _348  and  _351
REMARK  144  A    between atoms: _351  and  _352
REMARK  145  A    between atoms: _355  and  _357
REMARK  146  A    between atoms: _357  and  _358
REMARK  147  A    between atoms: _357  and  _360
REMARK  148  A    between atoms: _360  and  _361
REMARK  149  A    between atoms: _366  and  _368
REMARK  150  A    between atoms: _368  and  _369
REMARK  151  A    between atoms: _368  and  _371
REMARK  152  A    between atoms: _371  and  _372
REMARK  153  A    between atoms: _375  and  _377
REMARK  154  A    between atoms: _377  and  _378
REMARK  155  A    between atoms: _377  and  _380
REMARK  156  A    between atoms: _383  and  _385
REMARK  157  A    between atoms: _385  and  _386
REMARK  158  A    between atoms: _385  and  _388
REMARK  159  A    between atoms: _388  and  _389
REMARK  160  A    between atoms: _389  and  _390
REMARK  161  A    between atoms: _390  and  _391
REMARK  162  A    between atoms: _391  and  _392
REMARK  163  A    between atoms: _396  and  _398
REMARK  164  A    between atoms: _398  and  _399
REMARK  165  A    between atoms: _398  and  _401
REMARK  166  A    between atoms: _401  and  _402
REMARK  167  A    between atoms: _402  and  _403
REMARK  168  A    between atoms: _405  and  _407
REMARK  169  A    between atoms: _407  and  _408
REMARK  170  A    between atoms: _407  and  _410
REMARK  171  A    between atoms: _410  and  _411
REMARK  172  A    between atoms: _414  and  _416
REMARK  173  A    between atoms: _416  and  _417
REMARK  174  A    between atoms: _419  and  _421
REMARK  175  A    between atoms: _421  and  _422
REMARK  176  A    between atoms: _424  and  _426
REMARK  177  A    between atoms: _426  and  _427
REMARK  178  A    between atoms: _426  and  _429
REMARK  179  A    between atoms: _429  and  _430
REMARK  180  A    between atoms: _433  and  _435
REMARK  181  A    between atoms: _435  and  _436
REMARK  182  A    between atoms: _438  and  _440
REMARK  183  A    between atoms: _440  and  _441
REMARK  184  A    between atoms: _443  and  _445
REMARK  185  A    between atoms: _445  and  _446
REMARK  186  A    between atoms: _445  and  _448
REMARK  187  A    between atoms: _448  and  _449
REMARK  188  A    between atoms: _455  and  _457
REMARK  189  A    between atoms: _457  and  _458
REMARK  190  A    between atoms: _457  and  _460
REMARK  191  A    between atoms: _460  and  _461
REMARK  192  A    between atoms: _464  and  _466
REMARK  193  A    between atoms: _466  and  _467
REMARK  194  A    between atoms: _466  and  _469
REMARK  195  A    between atoms: _472  and  _474
REMARK  196  A    between atoms: _474  and  _475
REMARK  197  A    between atoms: _474  and  _477
REMARK  198  A    between atoms: _477  and  _478
REMARK  199  A    between atoms: _481  and  _483
REMARK  200  A    between atoms: _483  and  _484
REMARK  201  A    between atoms: _483  and  _486
REMARK  202  A    between atoms: _486  and  _487
REMARK  203  A    between atoms: _491  and  _492
REMARK  204  A    between atoms: _497  and  _499
REMARK  205  A    between atoms: _499  and  _500
REMARK  206  A    between atoms: _499  and  _502
REMARK  207  A    between atoms: _505  and  _507
REMARK  208  A    between atoms: _507  and  _508
REMARK  209  A    between atoms: _507  and  _510
REMARK  210  A    between atoms: _510  and  _511
REMARK  211  A    between atoms: _516  and  _518
REMARK  212  A    between atoms: _518  and  _519
REMARK  213  A    between atoms: _518  and  _521
REMARK  214  A    between atoms: _521  and  _522
REMARK  215  A    between atoms: _525  and  _527
REMARK  216  A    between atoms: _527  and  _528
REMARK  217  A    between atoms: _527  and  _530
REMARK  218  A    between atoms: _530  and  _531
REMARK  219  A    between atoms: _534  and  _536
REMARK  220  A    between atoms: _536  and  _537
REMARK  221  A    between atoms: _539  and  _541
REMARK  222  A    between atoms: _541  and  _542
REMARK  223  A    between atoms: _541  and  _544
REMARK  224  A    between atoms: _544  and  _545
REMARK  225  A    between atoms: _545  and  _546
REMARK  226  A    between atoms: _546  and  _547
REMARK  227  A    between atoms: _556  and  _558
REMARK  228  A    between atoms: _558  and  _559
REMARK  229  A    between atoms: _558  and  _561
REMARK  230  A    between atoms: _561  and  _562
REMARK                            x       y       z     vdW  Elec       q    Type
REMARK                         _______ _______ _______ _____ _____    ______ ____
ROOT
ATOM      1  O   HOH     1     -10.339   7.019  24.969  0.00  0.00    +0.000 OA
ENDROOT
TORSDOF 0
REMARK  Name = ../refined-set-2016/2pyn/2pyn_pocket.pdb
REMARK  230 active torsions:
REMARK  status: ('A' for Active; 'I' for Inactive)
REMARK    1  A    between atoms: _1  and  _3
REMARK    2  A    between atoms: _3  and  _4
REMARK    3  A    between atoms: _3  and  _6
REMARK    4  A    between atoms: _6  and  _7
REMARK    5  A    between atoms: _7  and  _8
REMARK    6  A    between atoms: _8  and  _9
REMARK    7  A    between atoms: _18  and  _20
REMARK    8  A    between atoms: _20  and  _21
REMARK    9  A    between atoms: _20  and  _23
REMARK   10  A    between atoms: _23  and  _24
REMARK   11  A    between atoms: _27  and  _29
REMARK   12  A    between atoms: _29  and  _30
REMARK   13  A    between atoms: _29  and  _32
REMARK   14  A    between atoms: _32  and  _33
REMARK   15  A    between atoms: _36  and  _38
REMARK   16  A    between atoms: _38  and  _39
REMARK   17  A    between atoms: _38  and  _41
REMARK   18  A    between atoms: _41  and  _42
REMARK   19  A    between atoms: _45  and  _47
REMARK   20  A    between atoms: _47  and  _48
REMARK   21  A    between atoms: _47  and  _50
REMARK   22  A    between atoms: _50  and  _51
REMARK   23  A    between atoms: _54  and  _56
REMARK   24  A    between atoms: _56  and  _57
REMARK   25  A    between atoms: _59  and  _61
REMARK   26  A    between atoms: _61  and  _62
REMARK   27  A    between atoms: _65  and  _67
REMARK   28  A    between atoms: _67  and  _68
REMARK   29  A    between atoms: _67  and  _70
REMARK   30  A    between atoms: _70  and  _71
REMARK   31  A    between atoms: _74  and  _76
REMARK   32  A    between atoms: _76  and  _77
REMARK   33  A    between atoms: _76  and  _79
REMARK   34  A    between atoms: _79  and  _80
REMARK   35  A    between atoms: _85  and  _87
REMARK   36  A    between atoms: _87  and  _88
REMARK   37  A    between atoms: _87  and  _90
REMARK   38  A    between atoms: _90  and  _91
REMARK   39  A    between atoms: _94  and  _96
REMARK   40  A    between atoms: _96  and  _97
REMARK   41  A    between atoms: _96  and  _99
REMARK   42  A    between atoms: _102  and  _104
REMARK   43  A    between atoms: _104  and  _105
REMARK   44  A    between atoms: _104  and  _107
REMARK   45  A    between atoms: _107  and  _108
REMARK   46  A    between atoms: _108  and  _109
REMARK   47  A    between atoms: _109  and  _110
REMARK   48  A    between atoms: _110  and  _111
REMARK   49  A    between atoms: _115  and  _117
REMARK   50  A    between atoms: _117  and  _118
REMARK   51  A    between atoms: _117  and  _120
REMARK   52  A    between atoms: _120  and  _121
REMARK   53  A    between atoms: _121  and  _122
REMARK   54  A    between atoms: _124  and  _126
REMARK   55  A    between atoms: _126  and  _127
REMARK   56  A    between atoms: _126  and  _129
REMARK   57  A    between atoms: _129  and  _130
REMARK   58  A    between atoms: _133  and  _135
REMARK   59  A    between atoms: _135  and  _136
REMARK   60  A    between atoms: _138  and  _140
REMARK   61  A    between atoms: _140  and  _141
REMARK   62  A    between atoms: _143  and  _145
REMARK   63  A    between atoms: _145  and  _146
REMARK   64  A    between atoms: _145  and  _148
REMARK   65  A    between atoms: _148  and  _149
REMARK   66  A    between atoms: _152  and  _154
REMARK   67  A    between atoms: _154  and  _155
REMARK   68  A    between atoms: _157  and  _159
REMARK   69  A    between atoms: _159  and  _160
REMARK   70  A    between atoms: _162  and  _164
REMARK   71  A    between atoms: _164  and  _165
REMARK   72  A    between atoms: _164  and  _167
REMARK   73  A    between atoms: _167  and  _168
REMARK   74  A    between atoms: _171  and  _173
REMARK   75  A    between atoms: _173  and  _174
REMARK   76  A    between atoms: _173  and  _176
REMARK   77  A    between atoms: _176  and  _177
REMARK   78  A    between atoms: _181  and  _182
REMARK   79  A    between atoms: _187  and  _189
REMARK   80  A    between atoms: _189  and  _190
REMARK   81  A    between atoms: _189  and  _192
REMARK   82  A    between atoms: _192  and  _193
REMARK   83  A    between atoms: _197  and  _198
REMARK   84  A    between atoms: _203  and  _205
REMARK   85  A    between atoms: _205  and  _206
REMARK   86  A    between atoms: _205  and  _208
REMARK   87  A    between atoms: _211  and  _213
REMARK   88  A    between atoms: _213  and  _214
REMARK   89  A    between atoms: _213  and  _216
REMARK   90  A    between atoms: _216  and  _217
REMARK   91  A    between atoms: _222  and  _224
REMARK   92  A    between atoms: _224  and  _225
REMARK   93  A    between atoms: _224  and  _227
REMARK   94  A    between atoms: _227  and  _228
REMARK   95  A    between atoms: _231  and  _233
REMARK   96  A    between atoms: _233  and  _234
REMARK   97  A    between atoms: _233  and  _236
REMARK   98  A    between atoms: _236  and  _237
REMARK   99  A    between atoms: _240  and  _242
REMARK  100  A    between atoms: _242  and  _243
REMARK  101  A    between atoms: _245  and  _247
REMARK  102  A    between atoms: _247  and  _248
REMARK  103  A    between atoms: _247  and  _250
REMARK  104  A    between atoms: _250  and  _251
REMARK  105  A    between atoms: _251  and  _252
REMARK  106  A    between atoms: _252  and  _253
REMARK  107  A    between atoms: _262  and  _264
REMARK  108  A    between atoms: _264  and  _265
REMARK  109  A    between atoms: _264  and  _267
REMARK  110  A    between atoms: _267  and  _268
REMARK  111  A    between atoms: _273  and  _275
REMARK  112  A    between atoms: _275  and  _276
REMARK  113  A    between atoms: _275  and  _278
REMARK  114  A    between atoms: _278  and  _279
REMARK  115  A    between atoms: _279  and  _280
REMARK  116  A    between atoms: _280  and  _281
REMARK  117  A    between atoms: _290  and  _292
REMARK  118  A    between atoms: _292  and  _293
REMARK  119  A    between atoms: _292  and  _295
REMARK  120  A    between atoms: _295  and  _296
REMARK  121  A    between atoms: _299  and  _301
REMARK  122  A    between atoms: _301  and  _302
REMARK  123  A    between atoms: _301  and  _304
REMARK  124  A    between atoms: _304  and  _305
REMARK  125  A    between atoms: _308  and  _310
REMARK  126  A    between atoms: _310  and  _311
REMARK  127  A    between atoms: _310  and  _313
REMARK  128  A    between atoms: _313  and  _314
REMARK  129  A    between atoms: _317  and  _319
REMARK  130  A    between atoms: _319  and  _320
REMARK  131  A    between atoms: _319  and  _322
REMARK  132  A    between atoms: _322  and  _323
REMARK  133  A    between atoms: _326  and  _328
REMARK  134  A    between atoms: _328  and  _329
REMARK  135  A    between atoms: _328  and  _331
REMARK  136  A    between atoms: _331  and  _332
REMARK  137  A    between atoms: _335  and  _337
REMARK  138  A    between atoms: _337  and  _338
REMARK  139  A    between atoms: _340  and  _342
REMARK  140  A    between atoms: _342  and  _343
REMARK  141  A    between atoms: _346  and  _348
REMARK  142  A    between atoms: _348  and  _349
REMARK  143  A    between atoms: _348  and  _351
REMARK  144  A    between atoms: _351  and  _352
REMARK  145  A    between atoms: _355  and  _357
REMARK  146  A    between atoms: _357  and  _358
REMARK  147  A    between atoms: _357  and  _360
REMARK  148  A    between atoms: _360  and  _361
REMARK  149  A    between atoms: _366  and  _368
REMARK  150  A    between atoms: _368  and  _369
REMARK  151  A    between atoms: _368  and  _371
REMARK  152  A    between atoms: _371  and  _372
REMARK  153  A    between atoms: _375  and  _377
REMARK  154  A    between atoms: _377  and  _378
REMARK  155  A    between atoms: _377  and  _380
REMARK  156  A    between atoms: _383  and  _385
REMARK  157  A    between atoms: _385  and  _386
REMARK  158  A    between atoms: _385  and  _388
REMARK  159  A    between atoms: _388  and  _389
REMARK  160  A    between atoms: _389  and  _390
REMARK  161  A    between atoms: _390  and  _391
REMARK  162  A    between atoms: _391  and  _392
REMARK  163  A    between atoms: _396  and  _398
REMARK  164  A    between atoms: _398  and  _399
REMARK  165  A    between atoms: _398  and  _401
REMARK  166  A    between atoms: _401  and  _402
REMARK  167  A    between atoms: _402  and  _403
REMARK  168  A    between atoms: _405  and  _407
REMARK  169  A    between atoms: _407  and  _408
REMARK  170  A    between atoms: _407  and  _410
REMARK  171  A    between atoms: _410  and  _411
REMARK  172  A    between atoms: _414  and  _416
REMARK  173  A    between atoms: _416  and  _417
REMARK  174  A    between atoms: _419  and  _421
REMARK  175  A    between atoms: _421  and  _422
REMARK  176  A    between atoms: _424  and  _426
REMARK  177  A    between atoms: _426  and  _427
REMARK  178  A    between atoms: _426  and  _429
REMARK  179  A    between atoms: _429  and  _430
REMARK  180  A    between atoms: _433  and  _435
REMARK  181  A    between atoms: _435  and  _436
REMARK  182  A    between atoms: _438  and  _440
REMARK  183  A    between atoms: _440  and  _441
REMARK  184  A    between atoms: _443  and  _445
REMARK  185  A    between atoms: _445  and  _446
REMARK  186  A    between atoms: _445  and  _448
REMARK  187  A    between atoms: _448  and  _449
REMARK  188  A    between atoms: _455  and  _457
REMARK  189  A    between atoms: _457  and  _458
REMARK  190  A    between atoms: _457  and  _460
REMARK  191  A    between atoms: _460  and  _461
REMARK  192  A    between atoms: _464  and  _466
REMARK  193  A    between atoms: _466  and  _467
REMARK  194  A    between atoms: _466  and  _469
REMARK  195  A    between atoms: _472  and  _474
REMARK  196  A    between atoms: _474  and  _475
REMARK  197  A    between atoms: _474  and  _477
REMARK  198  A    between atoms: _477  and  _478
REMARK  199  A    between atoms: _481  and  _483
REMARK  200  A    between atoms: _483  and  _484
REMARK  201  A    between atoms: _483  and  _486
REMARK  202  A    between atoms: _486  and  _487
REMARK  203  A    between atoms: _491  and  _492
REMARK  204  A    between atoms: _497  and  _499
REMARK  205  A    between atoms: _499  and  _500
REMARK  206  A    between atoms: _499  and  _502
REMARK  207  A    between atoms: _505  and  _507
REMARK  208  A    between atoms: _507  and  _508
REMARK  209  A    between atoms: _507  and  _510
REMARK  210  A    between atoms: _510  and  _511
REMARK  211  A    between atoms: _516  and  _518
REMARK  212  A    between atoms: _518  and  _519
REMARK  213  A    between atoms: _518  and  _521
REMARK  214  A    between atoms: _521  and  _522
REMARK  215  A    between atoms: _525  and  _527
REMARK  216  A    between atoms: _527  and  _528
REMARK  217  A    between atoms: _527  and  _530
REMARK  218  A    between atoms: _530  and  _531
REMARK  219  A    between atoms: _534  and  _536
REMARK  220  A    between atoms: _536  and  _537
REMARK  221  A    between atoms: _539  and  _541
REMARK  222  A    between atoms: _541  and  _542
REMARK  223  A    between atoms: _541  and  _544
REMARK  224  A    between atoms: _544  and  _545
REMARK  225  A    between atoms: _545  and  _546
REMARK  226  A    between atoms: _546  and  _547
REMARK  227  A    between atoms: _556  and  _558
REMARK  228  A    between atoms: _558  and  _559
REMARK  229  A    between atoms: _558  and  _561
REMARK  230  A    between atoms: _561  and  _562
REMARK                            x       y       z     vdW  Elec       q    Type
REMARK                         _______ _______ _______ _____ _____    ______ ____
ROOT
ATOM      1  O   HOH     1      -3.922  14.774  19.337  0.00  0.00    +0.000 OA
ENDROOT
TORSDOF 0
REMARK  Name = ../refined-set-2016/2pyn/2pyn_pocket.pdb
REMARK  230 active torsions:
REMARK  status: ('A' for Active; 'I' for Inactive)
REMARK    1  A    between atoms: _1  and  _3
REMARK    2  A    between atoms: _3  and  _4
REMARK    3  A    between atoms: _3  and  _6
REMARK    4  A    between atoms: _6  and  _7
REMARK    5  A    between atoms: _7  and  _8
REMARK    6  A    between atoms: _8  and  _9
REMARK    7  A    between atoms: _18  and  _20
REMARK    8  A    between atoms: _20  and  _21
REMARK    9  A    between atoms: _20  and  _23
REMARK   10  A    between atoms: _23  and  _24
REMARK   11  A    between atoms: _27  and  _29
REMARK   12  A    between atoms: _29  and  _30
REMARK   13  A    between atoms: _29  and  _32
REMARK   14  A    between atoms: _32  and  _33
REMARK   15  A    between atoms: _36  and  _38
REMARK   16  A    between atoms: _38  and  _39
REMARK   17  A    between atoms: _38  and  _41
REMARK   18  A    between atoms: _41  and  _42
REMARK   19  A    between atoms: _45  and  _47
REMARK   20  A    between atoms: _47  and  _48
REMARK   21  A    between atoms: _47  and  _50
REMARK   22  A    between atoms: _50  and  _51
REMARK   23  A    between atoms: _54  and  _56
REMARK   24  A    between atoms: _56  and  _57
REMARK   25  A    between atoms: _59  and  _61
REMARK   26  A    between atoms: _61  and  _62
REMARK   27  A    between atoms: _65  and  _67
REMARK   28  A    between atoms: _67  and  _68
REMARK   29  A    between atoms: _67  and  _70
REMARK   30  A    between atoms: _70  and  _71
REMARK   31  A    between atoms: _74  and  _76
REMARK   32  A    between atoms: _76  and  _77
REMARK   33  A    between atoms: _76  and  _79
REMARK   34  A    between atoms: _79  and  _80
REMARK   35  A    between atoms: _85  and  _87
REMARK   36  A    between atoms: _87  and  _88
REMARK   37  A    between atoms: _87  and  _90
REMARK   38  A    between atoms: _90  and  _91
REMARK   39  A    between atoms: _94  and  _96
REMARK   40  A    between atoms: _96  and  _97
REMARK   41  A    between atoms: _96  and  _99
REMARK   42  A    between atoms: _102  and  _104
REMARK   43  A    between atoms: _104  and  _105
REMARK   44  A    between atoms: _104  and  _107
REMARK   45  A    between atoms: _107  and  _108
REMARK   46  A    between atoms: _108  and  _109
REMARK   47  A    between atoms: _109  and  _110
REMARK   48  A    between atoms: _110  and  _111
REMARK   49  A    between atoms: _115  and  _117
REMARK   50  A    between atoms: _117  and  _118
REMARK   51  A    between atoms: _117  and  _120
REMARK   52  A    between atoms: _120  and  _121
REMARK   53  A    between atoms: _121  and  _122
REMARK   54  A    between atoms: _124  and  _126
REMARK   55  A    between atoms: _126  and  _127
REMARK   56  A    between atoms: _126  and  _129
REMARK   57  A    between atoms: _129  and  _130
REMARK   58  A    between atoms: _133  and  _135
REMARK   59  A    between atoms: _135  and  _136
REMARK   60  A    between atoms: _138  and  _140
REMARK   61  A    between atoms: _140  and  _141
REMARK   62  A    between atoms: _143  and  _145
REMARK   63  A    between atoms: _145  and  _146
REMARK   64  A    between atoms: _145  and  _148
REMARK   65  A    between atoms: _148  and  _149
REMARK   66  A    between atoms: _152  and  _154
REMARK   67  A    between atoms: _154  and  _155
REMARK   68  A    between atoms: _157  and  _159
REMARK   69  A    between atoms: _159  and  _160
REMARK   70  A    between atoms: _162  and  _164
REMARK   71  A    between atoms: _164  and  _165
REMARK   72  A    between atoms: _164  and  _167
REMARK   73  A    between atoms: _167  and  _168
REMARK   74  A    between atoms: _171  and  _173
REMARK   75  A    between atoms: _173  and  _174
REMARK   76  A    between atoms: _173  and  _176
REMARK   77  A    between atoms: _176  and  _177
REMARK   78  A    between atoms: _181  and  _182
REMARK   79  A    between atoms: _187  and  _189
REMARK   80  A    between atoms: _189  and  _190
REMARK   81  A    between atoms: _189  and  _192
REMARK   82  A    between atoms: _192  and  _193
REMARK   83  A    between atoms: _197  and  _198
REMARK   84  A    between atoms: _203  and  _205
REMARK   85  A    between atoms: _205  and  _206
REMARK   86  A    between atoms: _205  and  _208
REMARK   87  A    between atoms: _211  and  _213
REMARK   88  A    between atoms: _213  and  _214
REMARK   89  A    between atoms: _213  and  _216
REMARK   90  A    between atoms: _216  and  _217
REMARK   91  A    between atoms: _222  and  _224
REMARK   92  A    between atoms: _224  and  _225
REMARK   93  A    between atoms: _224  and  _227
REMARK   94  A    between atoms: _227  and  _228
REMARK   95  A    between atoms: _231  and  _233
REMARK   96  A    between atoms: _233  and  _234
REMARK   97  A    between atoms: _233  and  _236
REMARK   98  A    between atoms: _236  and  _237
REMARK   99  A    between atoms: _240  and  _242
REMARK  100  A    between atoms: _242  and  _243
REMARK  101  A    between atoms: _245  and  _247
REMARK  102  A    between atoms: _247  and  _248
REMARK  103  A    between atoms: _247  and  _250
REMARK  104  A    between atoms: _250  and  _251
REMARK  105  A    between atoms: _251  and  _252
REMARK  106  A    between atoms: _252  and  _253
REMARK  107  A    between atoms: _262  and  _264
REMARK  108  A    between atoms: _264  and  _265
REMARK  109  A    between atoms: _264  and  _267
REMARK  110  A    between atoms: _267  and  _268
REMARK  111  A    between atoms: _273  and  _275
REMARK  112  A    between atoms: _275  and  _276
REMARK  113  A    between atoms: _275  and  _278
REMARK  114  A    between atoms: _278  and  _279
REMARK  115  A    between atoms: _279  and  _280
REMARK  116  A    between atoms: _280  and  _281
REMARK  117  A    between atoms: _290  and  _292
REMARK  118  A    between atoms: _292  and  _293
REMARK  119  A    between atoms: _292  and  _295
REMARK  120  A    between atoms: _295  and  _296
REMARK  121  A    between atoms: _299  and  _301
REMARK  122  A    between atoms: _301  and  _302
REMARK  123  A    between atoms: _301  and  _304
REMARK  124  A    between atoms: _304  and  _305
REMARK  125  A    between atoms: _308  and  _310
REMARK  126  A    between atoms: _310  and  _311
REMARK  127  A    between atoms: _310  and  _313
REMARK  128  A    between atoms: _313  and  _314
REMARK  129  A    between atoms: _317  and  _319
REMARK  130  A    between atoms: _319  and  _320
REMARK  131  A    between atoms: _319  and  _322
REMARK  132  A    between atoms: _322  and  _323
REMARK  133  A    between atoms: _326  and  _328
REMARK  134  A    between atoms: _328  and  _329
REMARK  135  A    between atoms: _328  and  _331
REMARK  136  A    between atoms: _331  and  _332
REMARK  137  A    between atoms: _335  and  _337
REMARK  138  A    between atoms: _337  and  _338
REMARK  139  A    between atoms: _340  and  _342
REMARK  140  A    between atoms: _342  and  _343
REMARK  141  A    between atoms: _346  and  _348
REMARK  142  A    between atoms: _348  and  _349
REMARK  143  A    between atoms: _348  and  _351
REMARK  144  A    between atoms: _351  and  _352
REMARK  145  A    between atoms: _355  and  _357
REMARK  146  A    between atoms: _357  and  _358
REMARK  147  A    between atoms: _357  and  _360
REMARK  148  A    between atoms: _360  and  _361
REMARK  149  A    between atoms: _366  and  _368
REMARK  150  A    between atoms: _368  and  _369
REMARK  151  A    between atoms: _368  and  _371
REMARK  152  A    between atoms: _371  and  _372
REMARK  153  A    between atoms: _375  and  _377
REMARK  154  A    between atoms: _377  and  _378
REMARK  155  A    between atoms: _377  and  _380
REMARK  156  A    between atoms: _383  and  _385
REMARK  157  A    between atoms: _385  and  _386
REMARK  158  A    between atoms: _385  and  _388
REMARK  159  A    between atoms: _388  and  _389
REMARK  160  A    between atoms: _389  and  _390
REMARK  161  A    between atoms: _390  and  _391
REMARK  162  A    between atoms: _391  and  _392
REMARK  163  A    between atoms: _396  and  _398
REMARK  164  A    between atoms: _398  and  _399
REMARK  165  A    between atoms: _398  and  _401
REMARK  166  A    between atoms: _401  and  _402
REMARK  167  A    between atoms: _402  and  _403
REMARK  168  A    between atoms: _405  and  _407
REMARK  169  A    between atoms: _407  and  _408
REMARK  170  A    between atoms: _407  and  _410
REMARK  171  A    between atoms: _410  and  _411
REMARK  172  A    between atoms: _414  and  _416
REMARK  173  A    between atoms: _416  and  _417
REMARK  174  A    between atoms: _419  and  _421
REMARK  175  A    between atoms: _421  and  _422
REMARK  176  A    between atoms: _424  and  _426
REMARK  177  A    between atoms: _426  and  _427
REMARK  178  A    between atoms: _426  and  _429
REMARK  179  A    between atoms: _429  and  _430
REMARK  180  A    between atoms: _433  and  _435
REMARK  181  A    between atoms: _435  and  _436
REMARK  182  A    between atoms: _438  and  _440
REMARK  183  A    between atoms: _440  and  _441
REMARK  184  A    between atoms: _443  and  _445
REMARK  185  A    between atoms: _445  and  _446
REMARK  186  A    between atoms: _445  and  _448
REMARK  187  A    between atoms: _448  and  _449
REMARK  188  A    between atoms: _455  and  _457
REMARK  189  A    between atoms: _457  and  _458
REMARK  190  A    between atoms: _457  and  _460
REMARK  191  A    between atoms: _460  and  _461
REMARK  192  A    between atoms: _464  and  _466
REMARK  193  A    between atoms: _466  and  _467
REMARK  194  A    between atoms: _466  and  _469
REMARK  195  A    between atoms: _472  and  _474
REMARK  196  A    between atoms: _474  and  _475
REMARK  197  A    between atoms: _474  and  _477
REMARK  198  A    between atoms: _477  and  _478
REMARK  199  A    between atoms: _481  and  _483
REMARK  200  A    between atoms: _483  and  _484
REMARK  201  A    between atoms: _483  and  _486
REMARK  202  A    between atoms: _486  and  _487
REMARK  203  A    between atoms: _491  and  _492
REMARK  204  A    between atoms: _497  and  _499
REMARK  205  A    between atoms: _499  and  _500
REMARK  206  A    between atoms: _499  and  _502
REMARK  207  A    between atoms: _505  and  _507
REMARK  208  A    between atoms: _507  and  _508
REMARK  209  A    between atoms: _507  and  _510
REMARK  210  A    between atoms: _510  and  _511
REMARK  211  A    between atoms: _516  and  _518
REMARK  212  A    between atoms: _518  and  _519
REMARK  213  A    between atoms: _518  and  _521
REMARK  214  A    between atoms: _521  and  _522
REMARK  215  A    between atoms: _525  and  _527
REMARK  216  A    between atoms: _527  and  _528
REMARK  217  A    between atoms: _527  and  _530
REMARK  218  A    between atoms: _530  and  _531
REMARK  219  A    between atoms: _534  and  _536
REMARK  220  A    between atoms: _536  and  _537
REMARK  221  A    between atoms: _539  and  _541
REMARK  222  A    between atoms: _541  and  _542
REMARK  223  A    between atoms: _541  and  _544
REMARK  224  A    between atoms: _544  and  _545
REMARK  225  A    between atoms: _545  and  _546
REMARK  226  A    between atoms: _546  and  _547
REMARK  227  A    between atoms: _556  and  _558
REMARK  228  A    between atoms: _558  and  _559
REMARK  229  A    between atoms: _558  and  _561
REMARK  230  A    between atoms: _561  and  _562
REMARK                            x       y       z     vdW  Elec       q    Type
REMARK                         _______ _______ _______ _____ _____    ______ ____
ROOT
ATOM      1  O   HOH     1     -12.509  15.085  33.027  0.00  0.00    +0.000 OA
ENDROOT
TORSDOF 0
REMARK  Name = ../refined-set-2016/2pyn/2pyn_pocket.pdb
REMARK  230 active torsions:
REMARK  status: ('A' for Active; 'I' for Inactive)
REMARK    1  A    between atoms: _1  and  _3
REMARK    2  A    between atoms: _3  and  _4
REMARK    3  A    between atoms: _3  and  _6
REMARK    4  A    between atoms: _6  and  _7
REMARK    5  A    between atoms: _7  and  _8
REMARK    6  A    between atoms: _8  and  _9
REMARK    7  A    between atoms: _18  and  _20
REMARK    8  A    between atoms: _20  and  _21
REMARK    9  A    between atoms: _20  and  _23
REMARK   10  A    between atoms: _23  and  _24
REMARK   11  A    between atoms: _27  and  _29
REMARK   12  A    between atoms: _29  and  _30
REMARK   13  A    between atoms: _29  and  _32
REMARK   14  A    between atoms: _32  and  _33
REMARK   15  A    between atoms: _36  and  _38
REMARK   16  A    between atoms: _38  and  _39
REMARK   17  A    between atoms: _38  and  _41
REMARK   18  A    between atoms: _41  and  _42
REMARK   19  A    between atoms: _45  and  _47
REMARK   20  A    between atoms: _47  and  _48
REMARK   21  A    between atoms: _47  and  _50
REMARK   22  A    between atoms: _50  and  _51
REMARK   23  A    between atoms: _54  and  _56
REMARK   24  A    between atoms: _56  and  _57
REMARK   25  A    between atoms: _59  and  _61
REMARK   26  A    between atoms: _61  and  _62
REMARK   27  A    between atoms: _65  and  _67
REMARK   28  A    between atoms: _67  and  _68
REMARK   29  A    between atoms: _67  and  _70
REMARK   30  A    between atoms: _70  and  _71
REMARK   31  A    between atoms: _74  and  _76
REMARK   32  A    between atoms: _76  and  _77
REMARK   33  A    between atoms: _76  and  _79
REMARK   34  A    between atoms: _79  and  _80
REMARK   35  A    between atoms: _85  and  _87
REMARK   36  A    between atoms: _87  and  _88
REMARK   37  A    between atoms: _87  and  _90
REMARK   38  A    between atoms: _90  and  _91
REMARK   39  A    between atoms: _94  and  _96
REMARK   40  A    between atoms: _96  and  _97
REMARK   41  A    between atoms: _96  and  _99
REMARK   42  A    between atoms: _102  and  _104
REMARK   43  A    between atoms: _104  and  _105
REMARK   44  A    between atoms: _104  and  _107
REMARK   45  A    between atoms: _107  and  _108
REMARK   46  A    between atoms: _108  and  _109
REMARK   47  A    between atoms: _109  and  _110
REMARK   48  A    between atoms: _110  and  _111
REMARK   49  A    between atoms: _115  and  _117
REMARK   50  A    between atoms: _117  and  _118
REMARK   51  A    between atoms: _117  and  _120
REMARK   52  A    between atoms: _120  and  _121
REMARK   53  A    between atoms: _121  and  _122
REMARK   54  A    between atoms: _124  and  _126
REMARK   55  A    between atoms: _126  and  _127
REMARK   56  A    between atoms: _126  and  _129
REMARK   57  A    between atoms: _129  and  _130
REMARK   58  A    between atoms: _133  and  _135
REMARK   59  A    between atoms: _135  and  _136
REMARK   60  A    between atoms: _138  and  _140
REMARK   61  A    between atoms: _140  and  _141
REMARK   62  A    between atoms: _143  and  _145
REMARK   63  A    between atoms: _145  and  _146
REMARK   64  A    between atoms: _145  and  _148
REMARK   65  A    between atoms: _148  and  _149
REMARK   66  A    between atoms: _152  and  _154
REMARK   67  A    between atoms: _154  and  _155
REMARK   68  A    between atoms: _157  and  _159
REMARK   69  A    between atoms: _159  and  _160
REMARK   70  A    between atoms: _162  and  _164
REMARK   71  A    between atoms: _164  and  _165
REMARK   72  A    between atoms: _164  and  _167
REMARK   73  A    between atoms: _167  and  _168
REMARK   74  A    between atoms: _171  and  _173
REMARK   75  A    between atoms: _173  and  _174
REMARK   76  A    between atoms: _173  and  _176
REMARK   77  A    between atoms: _176  and  _177
REMARK   78  A    between atoms: _181  and  _182
REMARK   79  A    between atoms: _187  and  _189
REMARK   80  A    between atoms: _189  and  _190
REMARK   81  A    between atoms: _189  and  _192
REMARK   82  A    between atoms: _192  and  _193
REMARK   83  A    between atoms: _197  and  _198
REMARK   84  A    between atoms: _203  and  _205
REMARK   85  A    between atoms: _205  and  _206
REMARK   86  A    between atoms: _205  and  _208
REMARK   87  A    between atoms: _211  and  _213
REMARK   88  A    between atoms: _213  and  _214
REMARK   89  A    between atoms: _213  and  _216
REMARK   90  A    between atoms: _216  and  _217
REMARK   91  A    between atoms: _222  and  _224
REMARK   92  A    between atoms: _224  and  _225
REMARK   93  A    between atoms: _224  and  _227
REMARK   94  A    between atoms: _227  and  _228
REMARK   95  A    between atoms: _231  and  _233
REMARK   96  A    between atoms: _233  and  _234
REMARK   97  A    between atoms: _233  and  _236
REMARK   98  A    between atoms: _236  and  _237
REMARK   99  A    between atoms: _240  and  _242
REMARK  100  A    between atoms: _242  and  _243
REMARK  101  A    between atoms: _245  and  _247
REMARK  102  A    between atoms: _247  and  _248
REMARK  103  A    between atoms: _247  and  _250
REMARK  104  A    between atoms: _250  and  _251
REMARK  105  A    between atoms: _251  and  _252
REMARK  106  A    between atoms: _252  and  _253
REMARK  107  A    between atoms: _262  and  _264
REMARK  108  A    between atoms: _264  and  _265
REMARK  109  A    between atoms: _264  and  _267
REMARK  110  A    between atoms: _267  and  _268
REMARK  111  A    between atoms: _273  and  _275
REMARK  112  A    between atoms: _275  and  _276
REMARK  113  A    between atoms: _275  and  _278
REMARK  114  A    between atoms: _278  and  _279
REMARK  115  A    between atoms: _279  and  _280
REMARK  116  A    between atoms: _280  and  _281
REMARK  117  A    between atoms: _290  and  _292
REMARK  118  A    between atoms: _292  and  _293
REMARK  119  A    between atoms: _292  and  _295
REMARK  120  A    between atoms: _295  and  _296
REMARK  121  A    between atoms: _299  and  _301
REMARK  122  A    between atoms: _301  and  _302
REMARK  123  A    between atoms: _301  and  _304
REMARK  124  A    between atoms: _304  and  _305
REMARK  125  A    between atoms: _308  and  _310
REMARK  126  A    between atoms: _310  and  _311
REMARK  127  A    between atoms: _310  and  _313
REMARK  128  A    between atoms: _313  and  _314
REMARK  129  A    between atoms: _317  and  _319
REMARK  130  A    between atoms: _319  and  _320
REMARK  131  A    between atoms: _319  and  _322
REMARK  132  A    between atoms: _322  and  _323
REMARK  133  A    between atoms: _326  and  _328
REMARK  134  A    between atoms: _328  and  _329
REMARK  135  A    between atoms: _328  and  _331
REMARK  136  A    between atoms: _331  and  _332
REMARK  137  A    between atoms: _335  and  _337
REMARK  138  A    between atoms: _337  and  _338
REMARK  139  A    between atoms: _340  and  _342
REMARK  140  A    between atoms: _342  and  _343
REMARK  141  A    between atoms: _346  and  _348
REMARK  142  A    between atoms: _348  and  _349
REMARK  143  A    between atoms: _348  and  _351
REMARK  144  A    between atoms: _351  and  _352
REMARK  145  A    between atoms: _355  and  _357
REMARK  146  A    between atoms: _357  and  _358
REMARK  147  A    between atoms: _357  and  _360
REMARK  148  A    between atoms: _360  and  _361
REMARK  149  A    between atoms: _366  and  _368
REMARK  150  A    between atoms: _368  and  _369
REMARK  151  A    between atoms: _368  and  _371
REMARK  152  A    between atoms: _371  and  _372
REMARK  153  A    between atoms: _375  and  _377
REMARK  154  A    between atoms: _377  and  _378
REMARK  155  A    between atoms: _377  and  _380
REMARK  156  A    between atoms: _383  and  _385
REMARK  157  A    between atoms: _385  and  _386
REMARK  158  A    between atoms: _385  and  _388
REMARK  159  A    between atoms: _388  and  _389
REMARK  160  A    between atoms: _389  and  _390
REMARK  161  A    between atoms: _390  and  _391
REMARK  162  A    between atoms: _391  and  _392
REMARK  163  A    between atoms: _396  and  _398
REMARK  164  A    between atoms: _398  and  _399
REMARK  165  A    between atoms: _398  and  _401
REMARK  166  A    between atoms: _401  and  _402
REMARK  167  A    between atoms: _402  and  _403
REMARK  168  A    between atoms: _405  and  _407
REMARK  169  A    between atoms: _407  and  _408
REMARK  170  A    between atoms: _407  and  _410
REMARK  171  A    between atoms: _410  and  _411
REMARK  172  A    between atoms: _414  and  _416
REMARK  173  A    between atoms: _416  and  _417
REMARK  174  A    between atoms: _419  and  _421
REMARK  175  A    between atoms: _421  and  _422
REMARK  176  A    between atoms: _424  and  _426
REMARK  177  A    between atoms: _426  and  _427
REMARK  178  A    between atoms: _426  and  _429
REMARK  179  A    between atoms: _429  and  _430
REMARK  180  A    between atoms: _433  and  _435
REMARK  181  A    between atoms: _435  and  _436
REMARK  182  A    between atoms: _438  and  _440
REMARK  183  A    between atoms: _440  and  _441
REMARK  184  A    between atoms: _443  and  _445
REMARK  185  A    between atoms: _445  and  _446
REMARK  186  A    between atoms: _445  and  _448
REMARK  187  A    between atoms: _448  and  _449
REMARK  188  A    between atoms: _455  and  _457
REMARK  189  A    between atoms: _457  and  _458
REMARK  190  A    between atoms: _457  and  _460
REMARK  191  A    between atoms: _460  and  _461
REMARK  192  A    between atoms: _464  and  _466
REMARK  193  A    between atoms: _466  and  _467
REMARK  194  A    between atoms: _466  and  _469
REMARK  195  A    between atoms: _472  and  _474
REMARK  196  A    between atoms: _474  and  _475
REMARK  197  A    between atoms: _474  and  _477
REMARK  198  A    between atoms: _477  and  _478
REMARK  199  A    between atoms: _481  and  _483
REMARK  200  A    between atoms: _483  and  _484
REMARK  201  A    between atoms: _483  and  _486
REMARK  202  A    between atoms: _486  and  _487
REMARK  203  A    between atoms: _491  and  _492
REMARK  204  A    between atoms: _497  and  _499
REMARK  205  A    between atoms: _499  and  _500
REMARK  206  A    between atoms: _499  and  _502
REMARK  207  A    between atoms: _505  and  _507
REMARK  208  A    between atoms: _507  and  _508
REMARK  209  A    between atoms: _507  and  _510
REMARK  210  A    between atoms: _510  and  _511
REMARK  211  A    between atoms: _516  and  _518
REMARK  212  A    between atoms: _518  and  _519
REMARK  213  A    between atoms: _518  and  _521
REMARK  214  A    between atoms: _521  and  _522
REMARK  215  A    between atoms: _525  and  _527
REMARK  216  A    between atoms: _527  and  _528
REMARK  217  A    between atoms: _527  and  _530
REMARK  218  A    between atoms: _530  and  _531
REMARK  219  A    between atoms: _534  and  _536
REMARK  220  A    between atoms: _536  and  _537
REMARK  221  A    between atoms: _539  and  _541
REMARK  222  A    between atoms: _541  and  _542
REMARK  223  A    between atoms: _541  and  _544
REMARK  224  A    between atoms: _544  and  _545
REMARK  225  A    between atoms: _545  and  _546
REMARK  226  A    between atoms: _546  and  _547
REMARK  227  A    between atoms: _556  and  _558
REMARK  228  A    between atoms: _558  and  _559
REMARK  229  A    between atoms: _558  and  _561
REMARK  230  A    between atoms: _561  and  _562
REMARK                            x       y       z     vdW  Elec       q    Type
REMARK                         _______ _______ _______ _____ _____    ______ ____
ROOT
ATOM      1  O   HOH     1      -1.117  23.928  24.532  0.00  0.00    +0.000 OA
ENDROOT
TORSDOF 0
REMARK  Name = ../refined-set-2016/2pyn/2pyn_pocket.pdb
REMARK  230 active torsions:
REMARK  status: ('A' for Active; 'I' for Inactive)
REMARK    1  A    between atoms: _1  and  _3
REMARK    2  A    between atoms: _3  and  _4
REMARK    3  A    between atoms: _3  and  _6
REMARK    4  A    between atoms: _6  and  _7
REMARK    5  A    between atoms: _7  and  _8
REMARK    6  A    between atoms: _8  and  _9
REMARK    7  A    between atoms: _18  and  _20
REMARK    8  A    between atoms: _20  and  _21
REMARK    9  A    between atoms: _20  and  _23
REMARK   10  A    between atoms: _23  and  _24
REMARK   11  A    between atoms: _27  and  _29
REMARK   12  A    between atoms: _29  and  _30
REMARK   13  A    between atoms: _29  and  _32
REMARK   14  A    between atoms: _32  and  _33
REMARK   15  A    between atoms: _36  and  _38
REMARK   16  A    between atoms: _38  and  _39
REMARK   17  A    between atoms: _38  and  _41
REMARK   18  A    between atoms: _41  and  _42
REMARK   19  A    between atoms: _45  and  _47
REMARK   20  A    between atoms: _47  and  _48
REMARK   21  A    between atoms: _47  and  _50
REMARK   22  A    between atoms: _50  and  _51
REMARK   23  A    between atoms: _54  and  _56
REMARK   24  A    between atoms: _56  and  _57
REMARK   25  A    between atoms: _59  and  _61
REMARK   26  A    between atoms: _61  and  _62
REMARK   27  A    between atoms: _65  and  _67
REMARK   28  A    between atoms: _67  and  _68
REMARK   29  A    between atoms: _67  and  _70
REMARK   30  A    between atoms: _70  and  _71
REMARK   31  A    between atoms: _74  and  _76
REMARK   32  A    between atoms: _76  and  _77
REMARK   33  A    between atoms: _76  and  _79
REMARK   34  A    between atoms: _79  and  _80
REMARK   35  A    between atoms: _85  and  _87
REMARK   36  A    between atoms: _87  and  _88
REMARK   37  A    between atoms: _87  and  _90
REMARK   38  A    between atoms: _90  and  _91
REMARK   39  A    between atoms: _94  and  _96
REMARK   40  A    between atoms: _96  and  _97
REMARK   41  A    between atoms: _96  and  _99
REMARK   42  A    between atoms: _102  and  _104
REMARK   43  A    between atoms: _104  and  _105
REMARK   44  A    between atoms: _104  and  _107
REMARK   45  A    between atoms: _107  and  _108
REMARK   46  A    between atoms: _108  and  _109
REMARK   47  A    between atoms: _109  and  _110
REMARK   48  A    between atoms: _110  and  _111
REMARK   49  A    between atoms: _115  and  _117
REMARK   50  A    between atoms: _117  and  _118
REMARK   51  A    between atoms: _117  and  _120
REMARK   52  A    between atoms: _120  and  _121
REMARK   53  A    between atoms: _121  and  _122
REMARK   54  A    between atoms: _124  and  _126
REMARK   55  A    between atoms: _126  and  _127
REMARK   56  A    between atoms: _126  and  _129
REMARK   57  A    between atoms: _129  and  _130
REMARK   58  A    between atoms: _133  and  _135
REMARK   59  A    between atoms: _135  and  _136
REMARK   60  A    between atoms: _138  and  _140
REMARK   61  A    between atoms: _140  and  _141
REMARK   62  A    between atoms: _143  and  _145
REMARK   63  A    between atoms: _145  and  _146
REMARK   64  A    between atoms: _145  and  _148
REMARK   65  A    between atoms: _148  and  _149
REMARK   66  A    between atoms: _152  and  _154
REMARK   67  A    between atoms: _154  and  _155
REMARK   68  A    between atoms: _157  and  _159
REMARK   69  A    between atoms: _159  and  _160
REMARK   70  A    between atoms: _162  and  _164
REMARK   71  A    between atoms: _164  and  _165
REMARK   72  A    between atoms: _164  and  _167
REMARK   73  A    between atoms: _167  and  _168
REMARK   74  A    between atoms: _171  and  _173
REMARK   75  A    between atoms: _173  and  _174
REMARK   76  A    between atoms: _173  and  _176
REMARK   77  A    between atoms: _176  and  _177
REMARK   78  A    between atoms: _181  and  _182
REMARK   79  A    between atoms: _187  and  _189
REMARK   80  A    between atoms: _189  and  _190
REMARK   81  A    between atoms: _189  and  _192
REMARK   82  A    between atoms: _192  and  _193
REMARK   83  A    between atoms: _197  and  _198
REMARK   84  A    between atoms: _203  and  _205
REMARK   85  A    between atoms: _205  and  _206
REMARK   86  A    between atoms: _205  and  _208
REMARK   87  A    between atoms: _211  and  _213
REMARK   88  A    between atoms: _213  and  _214
REMARK   89  A    between atoms: _213  and  _216
REMARK   90  A    between atoms: _216  and  _217
REMARK   91  A    between atoms: _222  and  _224
REMARK   92  A    between atoms: _224  and  _225
REMARK   93  A    between atoms: _224  and  _227
REMARK   94  A    between atoms: _227  and  _228
REMARK   95  A    between atoms: _231  and  _233
REMARK   96  A    between atoms: _233  and  _234
REMARK   97  A    between atoms: _233  and  _236
REMARK   98  A    between atoms: _236  and  _237
REMARK   99  A    between atoms: _240  and  _242
REMARK  100  A    between atoms: _242  and  _243
REMARK  101  A    between atoms: _245  and  _247
REMARK  102  A    between atoms: _247  and  _248
REMARK  103  A    between atoms: _247  and  _250
REMARK  104  A    between atoms: _250  and  _251
REMARK  105  A    between atoms: _251  and  _252
REMARK  106  A    between atoms: _252  and  _253
REMARK  107  A    between atoms: _262  and  _264
REMARK  108  A    between atoms: _264  and  _265
REMARK  109  A    between atoms: _264  and  _267
REMARK  110  A    between atoms: _267  and  _268
REMARK  111  A    between atoms: _273  and  _275
REMARK  112  A    between atoms: _275  and  _276
REMARK  113  A    between atoms: _275  and  _278
REMARK  114  A    between atoms: _278  and  _279
REMARK  115  A    between atoms: _279  and  _280
REMARK  116  A    between atoms: _280  and  _281
REMARK  117  A    between atoms: _290  and  _292
REMARK  118  A    between atoms: _292  and  _293
REMARK  119  A    between atoms: _292  and  _295
REMARK  120  A    between atoms: _295  and  _296
REMARK  121  A    between atoms: _299  and  _301
REMARK  122  A    between atoms: _301  and  _302
REMARK  123  A    between atoms: _301  and  _304
REMARK  124  A    between atoms: _304  and  _305
REMARK  125  A    between atoms: _308  and  _310
REMARK  126  A    between atoms: _310  and  _311
REMARK  127  A    between atoms: _310  and  _313
REMARK  128  A    between atoms: _313  and  _314
REMARK  129  A    between atoms: _317  and  _319
REMARK  130  A    between atoms: _319  and  _320
REMARK  131  A    between atoms: _319  and  _322
REMARK  132  A    between atoms: _322  and  _323
REMARK  133  A    between atoms: _326  and  _328
REMARK  134  A    between atoms: _328  and  _329
REMARK  135  A    between atoms: _328  and  _331
REMARK  136  A    between atoms: _331  and  _332
REMARK  137  A    between atoms: _335  and  _337
REMARK  138  A    between atoms: _337  and  _338
REMARK  139  A    between atoms: _340  and  _342
REMARK  140  A    between atoms: _342  and  _343
REMARK  141  A    between atoms: _346  and  _348
REMARK  142  A    between atoms: _348  and  _349
REMARK  143  A    between atoms: _348  and  _351
REMARK  144  A    between atoms: _351  and  _352
REMARK  145  A    between atoms: _355  and  _357
REMARK  146  A    between atoms: _357  and  _358
REMARK  147  A    between atoms: _357  and  _360
REMARK  148  A    between atoms: _360  and  _361
REMARK  149  A    between atoms: _366  and  _368
REMARK  150  A    between atoms: _368  and  _369
REMARK  151  A    between atoms: _368  and  _371
REMARK  152  A    between atoms: _371  and  _372
REMARK  153  A    between atoms: _375  and  _377
REMARK  154  A    between atoms: _377  and  _378
REMARK  155  A    between atoms: _377  and  _380
REMARK  156  A    between atoms: _383  and  _385
REMARK  157  A    between atoms: _385  and  _386
REMARK  158  A    between atoms: _385  and  _388
REMARK  159  A    between atoms: _388  and  _389
REMARK  160  A    between atoms: _389  and  _390
REMARK  161  A    between atoms: _390  and  _391
REMARK  162  A    between atoms: _391  and  _392
REMARK  163  A    between atoms: _396  and  _398
REMARK  164  A    between atoms: _398  and  _399
REMARK  165  A    between atoms: _398  and  _401
REMARK  166  A    between atoms: _401  and  _402
REMARK  167  A    between atoms: _402  and  _403
REMARK  168  A    between atoms: _405  and  _407
REMARK  169  A    between atoms: _407  and  _408
REMARK  170  A    between atoms: _407  and  _410
REMARK  171  A    between atoms: _410  and  _411
REMARK  172  A    between atoms: _414  and  _416
REMARK  173  A    between atoms: _416  and  _417
REMARK  174  A    between atoms: _419  and  _421
REMARK  175  A    between atoms: _421  and  _422
REMARK  176  A    between atoms: _424  and  _426
REMARK  177  A    between atoms: _426  and  _427
REMARK  178  A    between atoms: _426  and  _429
REMARK  179  A    between atoms: _429  and  _430
REMARK  180  A    between atoms: _433  and  _435
REMARK  181  A    between atoms: _435  and  _436
REMARK  182  A    between atoms: _438  and  _440
REMARK  183  A    between atoms: _440  and  _441
REMARK  184  A    between atoms: _443  and  _445
REMARK  185  A    between atoms: _445  and  _446
REMARK  186  A    between atoms: _445  and  _448
REMARK  187  A    between atoms: _448  and  _449
REMARK  188  A    between atoms: _455  and  _457
REMARK  189  A    between atoms: _457  and  _458
REMARK  190  A    between atoms: _457  and  _460
REMARK  191  A    between atoms: _460  and  _461
REMARK  192  A    between atoms: _464  and  _466
REMARK  193  A    between atoms: _466  and  _467
REMARK  194  A    between atoms: _466  and  _469
REMARK  195  A    between atoms: _472  and  _474
REMARK  196  A    between atoms: _474  and  _475
REMARK  197  A    between atoms: _474  and  _477
REMARK  198  A    between atoms: _477  and  _478
REMARK  199  A    between atoms: _481  and  _483
REMARK  200  A    between atoms: _483  and  _484
REMARK  201  A    between atoms: _483  and  _486
REMARK  202  A    between atoms: _486  and  _487
REMARK  203  A    between atoms: _491  and  _492
REMARK  204  A    between atoms: _497  and  _499
REMARK  205  A    between atoms: _499  and  _500
REMARK  206  A    between atoms: _499  and  _502
REMARK  207  A    between atoms: _505  and  _507
REMARK  208  A    between atoms: _507  and  _508
REMARK  209  A    between atoms: _507  and  _510
REMARK  210  A    between atoms: _510  and  _511
REMARK  211  A    between atoms: _516  and  _518
REMARK  212  A    between atoms: _518  and  _519
REMARK  213  A    between atoms: _518  and  _521
REMARK  214  A    between atoms: _521  and  _522
REMARK  215  A    between atoms: _525  and  _527
REMARK  216  A    between atoms: _527  and  _528
REMARK  217  A    between atoms: _527  and  _530
REMARK  218  A    between atoms: _530  and  _531
REMARK  219  A    between atoms: _534  and  _536
REMARK  220  A    between atoms: _536  and  _537
REMARK  221  A    between atoms: _539  and  _541
REMARK  222  A    between atoms: _541  and  _542
REMARK  223  A    between atoms: _541  and  _544
REMARK  224  A    between atoms: _544  and  _545
REMARK  225  A    between atoms: _545  and  _546
REMARK  226  A    between atoms: _546  and  _547
REMARK  227  A    between atoms: _556  and  _558
REMARK  228  A    between atoms: _558  and  _559
REMARK  229  A    between atoms: _558  and  _561
REMARK  230  A    between atoms: _561  and  _562
REMARK                            x       y       z     vdW  Elec       q    Type
REMARK                         _______ _______ _______ _____ _____    ______ ____
ROOT
ATOM      1  O   HOH     1     -14.418  13.304  37.221  0.00  0.00    +0.000 OA
ENDROOT
TORSDOF 0
REMARK  Name = ../refined-set-2016/2pyn/2pyn_pocket.pdb
REMARK  230 active torsions:
REMARK  status: ('A' for Active; 'I' for Inactive)
REMARK    1  A    between atoms: _1  and  _3
REMARK    2  A    between atoms: _3  and  _4
REMARK    3  A    between atoms: _3  and  _6
REMARK    4  A    between atoms: _6  and  _7
REMARK    5  A    between atoms: _7  and  _8
REMARK    6  A    between atoms: _8  and  _9
REMARK    7  A    between atoms: _18  and  _20
REMARK    8  A    between atoms: _20  and  _21
REMARK    9  A    between atoms: _20  and  _23
REMARK   10  A    between atoms: _23  and  _24
REMARK   11  A    between atoms: _27  and  _29
REMARK   12  A    between atoms: _29  and  _30
REMARK   13  A    between atoms: _29  and  _32
REMARK   14  A    between atoms: _32  and  _33
REMARK   15  A    between atoms: _36  and  _38
REMARK   16  A    between atoms: _38  and  _39
REMARK   17  A    between atoms: _38  and  _41
REMARK   18  A    between atoms: _41  and  _42
REMARK   19  A    between atoms: _45  and  _47
REMARK   20  A    between atoms: _47  and  _48
REMARK   21  A    between atoms: _47  and  _50
REMARK   22  A    between atoms: _50  and  _51
REMARK   23  A    between atoms: _54  and  _56
REMARK   24  A    between atoms: _56  and  _57
REMARK   25  A    between atoms: _59  and  _61
REMARK   26  A    between atoms: _61  and  _62
REMARK   27  A    between atoms: _65  and  _67
REMARK   28  A    between atoms: _67  and  _68
REMARK   29  A    between atoms: _67  and  _70
REMARK   30  A    between atoms: _70  and  _71
REMARK   31  A    between atoms: _74  and  _76
REMARK   32  A    between atoms: _76  and  _77
REMARK   33  A    between atoms: _76  and  _79
REMARK   34  A    between atoms: _79  and  _80
REMARK   35  A    between atoms: _85  and  _87
REMARK   36  A    between atoms: _87  and  _88
REMARK   37  A    between atoms: _87  and  _90
REMARK   38  A    between atoms: _90  and  _91
REMARK   39  A    between atoms: _94  and  _96
REMARK   40  A    between atoms: _96  and  _97
REMARK   41  A    between atoms: _96  and  _99
REMARK   42  A    between atoms: _102  and  _104
REMARK   43  A    between atoms: _104  and  _105
REMARK   44  A    between atoms: _104  and  _107
REMARK   45  A    between atoms: _107  and  _108
REMARK   46  A    between atoms: _108  and  _109
REMARK   47  A    between atoms: _109  and  _110
REMARK   48  A    between atoms: _110  and  _111
REMARK   49  A    between atoms: _115  and  _117
REMARK   50  A    between atoms: _117  and  _118
REMARK   51  A    between atoms: _117  and  _120
REMARK   52  A    between atoms: _120  and  _121
REMARK   53  A    between atoms: _121  and  _122
REMARK   54  A    between atoms: _124  and  _126
REMARK   55  A    between atoms: _126  and  _127
REMARK   56  A    between atoms: _126  and  _129
REMARK   57  A    between atoms: _129  and  _130
REMARK   58  A    between atoms: _133  and  _135
REMARK   59  A    between atoms: _135  and  _136
REMARK   60  A    between atoms: _138  and  _140
REMARK   61  A    between atoms: _140  and  _141
REMARK   62  A    between atoms: _143  and  _145
REMARK   63  A    between atoms: _145  and  _146
REMARK   64  A    between atoms: _145  and  _148
REMARK   65  A    between atoms: _148  and  _149
REMARK   66  A    between atoms: _152  and  _154
REMARK   67  A    between atoms: _154  and  _155
REMARK   68  A    between atoms: _157  and  _159
REMARK   69  A    between atoms: _159  and  _160
REMARK   70  A    between atoms: _162  and  _164
REMARK   71  A    between atoms: _164  and  _165
REMARK   72  A    between atoms: _164  and  _167
REMARK   73  A    between atoms: _167  and  _168
REMARK   74  A    between atoms: _171  and  _173
REMARK   75  A    between atoms: _173  and  _174
REMARK   76  A    between atoms: _173  and  _176
REMARK   77  A    between atoms: _176  and  _177
REMARK   78  A    between atoms: _181  and  _182
REMARK   79  A    between atoms: _187  and  _189
REMARK   80  A    between atoms: _189  and  _190
REMARK   81  A    between atoms: _189  and  _192
REMARK   82  A    between atoms: _192  and  _193
REMARK   83  A    between atoms: _197  and  _198
REMARK   84  A    between atoms: _203  and  _205
REMARK   85  A    between atoms: _205  and  _206
REMARK   86  A    between atoms: _205  and  _208
REMARK   87  A    between atoms: _211  and  _213
REMARK   88  A    between atoms: _213  and  _214
REMARK   89  A    between atoms: _213  and  _216
REMARK   90  A    between atoms: _216  and  _217
REMARK   91  A    between atoms: _222  and  _224
REMARK   92  A    between atoms: _224  and  _225
REMARK   93  A    between atoms: _224  and  _227
REMARK   94  A    between atoms: _227  and  _228
REMARK   95  A    between atoms: _231  and  _233
REMARK   96  A    between atoms: _233  and  _234
REMARK   97  A    between atoms: _233  and  _236
REMARK   98  A    between atoms: _236  and  _237
REMARK   99  A    between atoms: _240  and  _242
REMARK  100  A    between atoms: _242  and  _243
REMARK  101  A    between atoms: _245  and  _247
REMARK  102  A    between atoms: _247  and  _248
REMARK  103  A    between atoms: _247  and  _250
REMARK  104  A    between atoms: _250  and  _251
REMARK  105  A    between atoms: _251  and  _252
REMARK  106  A    between atoms: _252  and  _253
REMARK  107  A    between atoms: _262  and  _264
REMARK  108  A    between atoms: _264  and  _265
REMARK  109  A    between atoms: _264  and  _267
REMARK  110  A    between atoms: _267  and  _268
REMARK  111  A    between atoms: _273  and  _275
REMARK  112  A    between atoms: _275  and  _276
REMARK  113  A    between atoms: _275  and  _278
REMARK  114  A    between atoms: _278  and  _279
REMARK  115  A    between atoms: _279  and  _280
REMARK  116  A    between atoms: _280  and  _281
REMARK  117  A    between atoms: _290  and  _292
REMARK  118  A    between atoms: _292  and  _293
REMARK  119  A    between atoms: _292  and  _295
REMARK  120  A    between atoms: _295  and  _296
REMARK  121  A    between atoms: _299  and  _301
REMARK  122  A    between atoms: _301  and  _302
REMARK  123  A    between atoms: _301  and  _304
REMARK  124  A    between atoms: _304  and  _305
REMARK  125  A    between atoms: _308  and  _310
REMARK  126  A    between atoms: _310  and  _311
REMARK  127  A    between atoms: _310  and  _313
REMARK  128  A    between atoms: _313  and  _314
REMARK  129  A    between atoms: _317  and  _319
REMARK  130  A    between atoms: _319  and  _320
REMARK  131  A    between atoms: _319  and  _322
REMARK  132  A    between atoms: _322  and  _323
REMARK  133  A    between atoms: _326  and  _328
REMARK  134  A    between atoms: _328  and  _329
REMARK  135  A    between atoms: _328  and  _331
REMARK  136  A    between atoms: _331  and  _332
REMARK  137  A    between atoms: _335  and  _337
REMARK  138  A    between atoms: _337  and  _338
REMARK  139  A    between atoms: _340  and  _342
REMARK  140  A    between atoms: _342  and  _343
REMARK  141  A    between atoms: _346  and  _348
REMARK  142  A    between atoms: _348  and  _349
REMARK  143  A    between atoms: _348  and  _351
REMARK  144  A    between atoms: _351  and  _352
REMARK  145  A    between atoms: _355  and  _357
REMARK  146  A    between atoms: _357  and  _358
REMARK  147  A    between atoms: _357  and  _360
REMARK  148  A    between atoms: _360  and  _361
REMARK  149  A    between atoms: _366  and  _368
REMARK  150  A    between atoms: _368  and  _369
REMARK  151  A    between atoms: _368  and  _371
REMARK  152  A    between atoms: _371  and  _372
REMARK  153  A    between atoms: _375  and  _377
REMARK  154  A    between atoms: _377  and  _378
REMARK  155  A    between atoms: _377  and  _380
REMARK  156  A    between atoms: _383  and  _385
REMARK  157  A    between atoms: _385  and  _386
REMARK  158  A    between atoms: _385  and  _388
REMARK  159  A    between atoms: _388  and  _389
REMARK  160  A    between atoms: _389  and  _390
REMARK  161  A    between atoms: _390  and  _391
REMARK  162  A    between atoms: _391  and  _392
REMARK  163  A    between atoms: _396  and  _398
REMARK  164  A    between atoms: _398  and  _399
REMARK  165  A    between atoms: _398  and  _401
REMARK  166  A    between atoms: _401  and  _402
REMARK  167  A    between atoms: _402  and  _403
REMARK  168  A    between atoms: _405  and  _407
REMARK  169  A    between atoms: _407  and  _408
REMARK  170  A    between atoms: _407  and  _410
REMARK  171  A    between atoms: _410  and  _411
REMARK  172  A    between atoms: _414  and  _416
REMARK  173  A    between atoms: _416  and  _417
REMARK  174  A    between atoms: _419  and  _421
REMARK  175  A    between atoms: _421  and  _422
REMARK  176  A    between atoms: _424  and  _426
REMARK  177  A    between atoms: _426  and  _427
REMARK  178  A    between atoms: _426  and  _429
REMARK  179  A    between atoms: _429  and  _430
REMARK  180  A    between atoms: _433  and  _435
REMARK  181  A    between atoms: _435  and  _436
REMARK  182  A    between atoms: _438  and  _440
REMARK  183  A    between atoms: _440  and  _441
REMARK  184  A    between atoms: _443  and  _445
REMARK  185  A    between atoms: _445  and  _446
REMARK  186  A    between atoms: _445  and  _448
REMARK  187  A    between atoms: _448  and  _449
REMARK  188  A    between atoms: _455  and  _457
REMARK  189  A    between atoms: _457  and  _458
REMARK  190  A    between atoms: _457  and  _460
REMARK  191  A    between atoms: _460  and  _461
REMARK  192  A    between atoms: _464  and  _466
REMARK  193  A    between atoms: _466  and  _467
REMARK  194  A    between atoms: _466  and  _469
REMARK  195  A    between atoms: _472  and  _474
REMARK  196  A    between atoms: _474  and  _475
REMARK  197  A    between atoms: _474  and  _477
REMARK  198  A    between atoms: _477  and  _478
REMARK  199  A    between atoms: _481  and  _483
REMARK  200  A    between atoms: _483  and  _484
REMARK  201  A    between atoms: _483  and  _486
REMARK  202  A    between atoms: _486  and  _487
REMARK  203  A    between atoms: _491  and  _492
REMARK  204  A    between atoms: _497  and  _499
REMARK  205  A    between atoms: _499  and  _500
REMARK  206  A    between atoms: _499  and  _502
REMARK  207  A    between atoms: _505  and  _507
REMARK  208  A    between atoms: _507  and  _508
REMARK  209  A    between atoms: _507  and  _510
REMARK  210  A    between atoms: _510  and  _511
REMARK  211  A    between atoms: _516  and  _518
REMARK  212  A    between atoms: _518  and  _519
REMARK  213  A    between atoms: _518  and  _521
REMARK  214  A    between atoms: _521  and  _522
REMARK  215  A    between atoms: _525  and  _527
REMARK  216  A    between atoms: _527  and  _528
REMARK  217  A    between atoms: _527  and  _530
REMARK  218  A    between atoms: _530  and  _531
REMARK  219  A    between atoms: _534  and  _536
REMARK  220  A    between atoms: _536  and  _537
REMARK  221  A    between atoms: _539  and  _541
REMARK  222  A    between atoms: _541  and  _542
REMARK  223  A    between atoms: _541  and  _544
REMARK  224  A    between atoms: _544  and  _545
REMARK  225  A    between atoms: _545  and  _546
REMARK  226  A    between atoms: _546  and  _547
REMARK  227  A    between atoms: _556  and  _558
REMARK  228  A    between atoms: _558  and  _559
REMARK  229  A    between atoms: _558  and  _561
REMARK  230  A    between atoms: _561  and  _562
REMARK                            x       y       z     vdW  Elec       q    Type
REMARK                         _______ _______ _______ _____ _____    ______ ____
ROOT
ATOM      1  O   HOH     1     -16.549  18.888  31.693  0.00  0.00    +0.000 OA
ENDROOT
TORSDOF 0
REMARK  Name = ../refined-set-2016/2pyn/2pyn_pocket.pdb
REMARK  230 active torsions:
REMARK  status: ('A' for Active; 'I' for Inactive)
REMARK    1  A    between atoms: _1  and  _3
REMARK    2  A    between atoms: _3  and  _4
REMARK    3  A    between atoms: _3  and  _6
REMARK    4  A    between atoms: _6  and  _7
REMARK    5  A    between atoms: _7  and  _8
REMARK    6  A    between atoms: _8  and  _9
REMARK    7  A    between atoms: _18  and  _20
REMARK    8  A    between atoms: _20  and  _21
REMARK    9  A    between atoms: _20  and  _23
REMARK   10  A    between atoms: _23  and  _24
REMARK   11  A    between atoms: _27  and  _29
REMARK   12  A    between atoms: _29  and  _30
REMARK   13  A    between atoms: _29  and  _32
REMARK   14  A    between atoms: _32  and  _33
REMARK   15  A    between atoms: _36  and  _38
REMARK   16  A    between atoms: _38  and  _39
REMARK   17  A    between atoms: _38  and  _41
REMARK   18  A    between atoms: _41  and  _42
REMARK   19  A    between atoms: _45  and  _47
REMARK   20  A    between atoms: _47  and  _48
REMARK   21  A    between atoms: _47  and  _50
REMARK   22  A    between atoms: _50  and  _51
REMARK   23  A    between atoms: _54  and  _56
REMARK   24  A    between atoms: _56  and  _57
REMARK   25  A    between atoms: _59  and  _61
REMARK   26  A    between atoms: _61  and  _62
REMARK   27  A    between atoms: _65  and  _67
REMARK   28  A    between atoms: _67  and  _68
REMARK   29  A    between atoms: _67  and  _70
REMARK   30  A    between atoms: _70  and  _71
REMARK   31  A    between atoms: _74  and  _76
REMARK   32  A    between atoms: _76  and  _77
REMARK   33  A    between atoms: _76  and  _79
REMARK   34  A    between atoms: _79  and  _80
REMARK   35  A    between atoms: _85  and  _87
REMARK   36  A    between atoms: _87  and  _88
REMARK   37  A    between atoms: _87  and  _90
REMARK   38  A    between atoms: _90  and  _91
REMARK   39  A    between atoms: _94  and  _96
REMARK   40  A    between atoms: _96  and  _97
REMARK   41  A    between atoms: _96  and  _99
REMARK   42  A    between atoms: _102  and  _104
REMARK   43  A    between atoms: _104  and  _105
REMARK   44  A    between atoms: _104  and  _107
REMARK   45  A    between atoms: _107  and  _108
REMARK   46  A    between atoms: _108  and  _109
REMARK   47  A    between atoms: _109  and  _110
REMARK   48  A    between atoms: _110  and  _111
REMARK   49  A    between atoms: _115  and  _117
REMARK   50  A    between atoms: _117  and  _118
REMARK   51  A    between atoms: _117  and  _120
REMARK   52  A    between atoms: _120  and  _121
REMARK   53  A    between atoms: _121  and  _122
REMARK   54  A    between atoms: _124  and  _126
REMARK   55  A    between atoms: _126  and  _127
REMARK   56  A    between atoms: _126  and  _129
REMARK   57  A    between atoms: _129  and  _130
REMARK   58  A    between atoms: _133  and  _135
REMARK   59  A    between atoms: _135  and  _136
REMARK   60  A    between atoms: _138  and  _140
REMARK   61  A    between atoms: _140  and  _141
REMARK   62  A    between atoms: _143  and  _145
REMARK   63  A    between atoms: _145  and  _146
REMARK   64  A    between atoms: _145  and  _148
REMARK   65  A    between atoms: _148  and  _149
REMARK   66  A    between atoms: _152  and  _154
REMARK   67  A    between atoms: _154  and  _155
REMARK   68  A    between atoms: _157  and  _159
REMARK   69  A    between atoms: _159  and  _160
REMARK   70  A    between atoms: _162  and  _164
REMARK   71  A    between atoms: _164  and  _165
REMARK   72  A    between atoms: _164  and  _167
REMARK   73  A    between atoms: _167  and  _168
REMARK   74  A    between atoms: _171  and  _173
REMARK   75  A    between atoms: _173  and  _174
REMARK   76  A    between atoms: _173  and  _176
REMARK   77  A    between atoms: _176  and  _177
REMARK   78  A    between atoms: _181  and  _182
REMARK   79  A    between atoms: _187  and  _189
REMARK   80  A    between atoms: _189  and  _190
REMARK   81  A    between atoms: _189  and  _192
REMARK   82  A    between atoms: _192  and  _193
REMARK   83  A    between atoms: _197  and  _198
REMARK   84  A    between atoms: _203  and  _205
REMARK   85  A    between atoms: _205  and  _206
REMARK   86  A    between atoms: _205  and  _208
REMARK   87  A    between atoms: _211  and  _213
REMARK   88  A    between atoms: _213  and  _214
REMARK   89  A    between atoms: _213  and  _216
REMARK   90  A    between atoms: _216  and  _217
REMARK   91  A    between atoms: _222  and  _224
REMARK   92  A    between atoms: _224  and  _225
REMARK   93  A    between atoms: _224  and  _227
REMARK   94  A    between atoms: _227  and  _228
REMARK   95  A    between atoms: _231  and  _233
REMARK   96  A    between atoms: _233  and  _234
REMARK   97  A    between atoms: _233  and  _236
REMARK   98  A    between atoms: _236  and  _237
REMARK   99  A    between atoms: _240  and  _242
REMARK  100  A    between atoms: _242  and  _243
REMARK  101  A    between atoms: _245  and  _247
REMARK  102  A    between atoms: _247  and  _248
REMARK  103  A    between atoms: _247  and  _250
REMARK  104  A    between atoms: _250  and  _251
REMARK  105  A    between atoms: _251  and  _252
REMARK  106  A    between atoms: _252  and  _253
REMARK  107  A    between atoms: _262  and  _264
REMARK  108  A    between atoms: _264  and  _265
REMARK  109  A    between atoms: _264  and  _267
REMARK  110  A    between atoms: _267  and  _268
REMARK  111  A    between atoms: _273  and  _275
REMARK  112  A    between atoms: _275  and  _276
REMARK  113  A    between atoms: _275  and  _278
REMARK  114  A    between atoms: _278  and  _279
REMARK  115  A    between atoms: _279  and  _280
REMARK  116  A    between atoms: _280  and  _281
REMARK  117  A    between atoms: _290  and  _292
REMARK  118  A    between atoms: _292  and  _293
REMARK  119  A    between atoms: _292  and  _295
REMARK  120  A    between atoms: _295  and  _296
REMARK  121  A    between atoms: _299  and  _301
REMARK  122  A    between atoms: _301  and  _302
REMARK  123  A    between atoms: _301  and  _304
REMARK  124  A    between atoms: _304  and  _305
REMARK  125  A    between atoms: _308  and  _310
REMARK  126  A    between atoms: _310  and  _311
REMARK  127  A    between atoms: _310  and  _313
REMARK  128  A    between atoms: _313  and  _314
REMARK  129  A    between atoms: _317  and  _319
REMARK  130  A    between atoms: _319  and  _320
REMARK  131  A    between atoms: _319  and  _322
REMARK  132  A    between atoms: _322  and  _323
REMARK  133  A    between atoms: _326  and  _328
REMARK  134  A    between atoms: _328  and  _329
REMARK  135  A    between atoms: _328  and  _331
REMARK  136  A    between atoms: _331  and  _332
REMARK  137  A    between atoms: _335  and  _337
REMARK  138  A    between atoms: _337  and  _338
REMARK  139  A    between atoms: _340  and  _342
REMARK  140  A    between atoms: _342  and  _343
REMARK  141  A    between atoms: _346  and  _348
REMARK  142  A    between atoms: _348  and  _349
REMARK  143  A    between atoms: _348  and  _351
REMARK  144  A    between atoms: _351  and  _352
REMARK  145  A    between atoms: _355  and  _357
REMARK  146  A    between atoms: _357  and  _358
REMARK  147  A    between atoms: _357  and  _360
REMARK  148  A    between atoms: _360  and  _361
REMARK  149  A    between atoms: _366  and  _368
REMARK  150  A    between atoms: _368  and  _369
REMARK  151  A    between atoms: _368  and  _371
REMARK  152  A    between atoms: _371  and  _372
REMARK  153  A    between atoms: _375  and  _377
REMARK  154  A    between atoms: _377  and  _378
REMARK  155  A    between atoms: _377  and  _380
REMARK  156  A    between atoms: _383  and  _385
REMARK  157  A    between atoms: _385  and  _386
REMARK  158  A    between atoms: _385  and  _388
REMARK  159  A    between atoms: _388  and  _389
REMARK  160  A    between atoms: _389  and  _390
REMARK  161  A    between atoms: _390  and  _391
REMARK  162  A    between atoms: _391  and  _392
REMARK  163  A    between atoms: _396  and  _398
REMARK  164  A    between atoms: _398  and  _399
REMARK  165  A    between atoms: _398  and  _401
REMARK  166  A    between atoms: _401  and  _402
REMARK  167  A    between atoms: _402  and  _403
REMARK  168  A    between atoms: _405  and  _407
REMARK  169  A    between atoms: _407  and  _408
REMARK  170  A    between atoms: _407  and  _410
REMARK  171  A    between atoms: _410  and  _411
REMARK  172  A    between atoms: _414  and  _416
REMARK  173  A    between atoms: _416  and  _417
REMARK  174  A    between atoms: _419  and  _421
REMARK  175  A    between atoms: _421  and  _422
REMARK  176  A    between atoms: _424  and  _426
REMARK  177  A    between atoms: _426  and  _427
REMARK  178  A    between atoms: _426  and  _429
REMARK  179  A    between atoms: _429  and  _430
REMARK  180  A    between atoms: _433  and  _435
REMARK  181  A    between atoms: _435  and  _436
REMARK  182  A    between atoms: _438  and  _440
REMARK  183  A    between atoms: _440  and  _441
REMARK  184  A    between atoms: _443  and  _445
REMARK  185  A    between atoms: _445  and  _446
REMARK  186  A    between atoms: _445  and  _448
REMARK  187  A    between atoms: _448  and  _449
REMARK  188  A    between atoms: _455  and  _457
REMARK  189  A    between atoms: _457  and  _458
REMARK  190  A    between atoms: _457  and  _460
REMARK  191  A    between atoms: _460  and  _461
REMARK  192  A    between atoms: _464  and  _466
REMARK  193  A    between atoms: _466  and  _467
REMARK  194  A    between atoms: _466  and  _469
REMARK  195  A    between atoms: _472  and  _474
REMARK  196  A    between atoms: _474  and  _475
REMARK  197  A    between atoms: _474  and  _477
REMARK  198  A    between atoms: _477  and  _478
REMARK  199  A    between atoms: _481  and  _483
REMARK  200  A    between atoms: _483  and  _484
REMARK  201  A    between atoms: _483  and  _486
REMARK  202  A    between atoms: _486  and  _487
REMARK  203  A    between atoms: _491  and  _492
REMARK  204  A    between atoms: _497  and  _499
REMARK  205  A    between atoms: _499  and  _500
REMARK  206  A    between atoms: _499  and  _502
REMARK  207  A    between atoms: _505  and  _507
REMARK  208  A    between atoms: _507  and  _508
REMARK  209  A    between atoms: _507  and  _510
REMARK  210  A    between atoms: _510  and  _511
REMARK  211  A    between atoms: _516  and  _518
REMARK  212  A    between atoms: _518  and  _519
REMARK  213  A    between atoms: _518  and  _521
REMARK  214  A    between atoms: _521  and  _522
REMARK  215  A    between atoms: _525  and  _527
REMARK  216  A    between atoms: _527  and  _528
REMARK  217  A    between atoms: _527  and  _530
REMARK  218  A    between atoms: _530  and  _531
REMARK  219  A    between atoms: _534  and  _536
REMARK  220  A    between atoms: _536  and  _537
REMARK  221  A    between atoms: _539  and  _541
REMARK  222  A    between atoms: _541  and  _542
REMARK  223  A    between atoms: _541  and  _544
REMARK  224  A    between atoms: _544  and  _545
REMARK  225  A    between atoms: _545  and  _546
REMARK  226  A    between atoms: _546  and  _547
REMARK  227  A    between atoms: _556  and  _558
REMARK  228  A    between atoms: _558  and  _559
REMARK  229  A    between atoms: _558  and  _561
REMARK  230  A    between atoms: _561  and  _562
REMARK                            x       y       z     vdW  Elec       q    Type
REMARK                         _______ _______ _______ _____ _____    ______ ____
ROOT
ATOM      1  O   HOH     1     -15.676  16.096  31.432  0.00  0.00    +0.000 OA
ENDROOT
TORSDOF 0
REMARK  Name = ../refined-set-2016/2pyn/2pyn_pocket.pdb
REMARK  230 active torsions:
REMARK  status: ('A' for Active; 'I' for Inactive)
REMARK    1  A    between atoms: _1  and  _3
REMARK    2  A    between atoms: _3  and  _4
REMARK    3  A    between atoms: _3  and  _6
REMARK    4  A    between atoms: _6  and  _7
REMARK    5  A    between atoms: _7  and  _8
REMARK    6  A    between atoms: _8  and  _9
REMARK    7  A    between atoms: _18  and  _20
REMARK    8  A    between atoms: _20  and  _21
REMARK    9  A    between atoms: _20  and  _23
REMARK   10  A    between atoms: _23  and  _24
REMARK   11  A    between atoms: _27  and  _29
REMARK   12  A    between atoms: _29  and  _30
REMARK   13  A    between atoms: _29  and  _32
REMARK   14  A    between atoms: _32  and  _33
REMARK   15  A    between atoms: _36  and  _38
REMARK   16  A    between atoms: _38  and  _39
REMARK   17  A    between atoms: _38  and  _41
REMARK   18  A    between atoms: _41  and  _42
REMARK   19  A    between atoms: _45  and  _47
REMARK   20  A    between atoms: _47  and  _48
REMARK   21  A    between atoms: _47  and  _50
REMARK   22  A    between atoms: _50  and  _51
REMARK   23  A    between atoms: _54  and  _56
REMARK   24  A    between atoms: _56  and  _57
REMARK   25  A    between atoms: _59  and  _61
REMARK   26  A    between atoms: _61  and  _62
REMARK   27  A    between atoms: _65  and  _67
REMARK   28  A    between atoms: _67  and  _68
REMARK   29  A    between atoms: _67  and  _70
REMARK   30  A    between atoms: _70  and  _71
REMARK   31  A    between atoms: _74  and  _76
REMARK   32  A    between atoms: _76  and  _77
REMARK   33  A    between atoms: _76  and  _79
REMARK   34  A    between atoms: _79  and  _80
REMARK   35  A    between atoms: _85  and  _87
REMARK   36  A    between atoms: _87  and  _88
REMARK   37  A    between atoms: _87  and  _90
REMARK   38  A    between atoms: _90  and  _91
REMARK   39  A    between atoms: _94  and  _96
REMARK   40  A    between atoms: _96  and  _97
REMARK   41  A    between atoms: _96  and  _99
REMARK   42  A    between atoms: _102  and  _104
REMARK   43  A    between atoms: _104  and  _105
REMARK   44  A    between atoms: _104  and  _107
REMARK   45  A    between atoms: _107  and  _108
REMARK   46  A    between atoms: _108  and  _109
REMARK   47  A    between atoms: _109  and  _110
REMARK   48  A    between atoms: _110  and  _111
REMARK   49  A    between atoms: _115  and  _117
REMARK   50  A    between atoms: _117  and  _118
REMARK   51  A    between atoms: _117  and  _120
REMARK   52  A    between atoms: _120  and  _121
REMARK   53  A    between atoms: _121  and  _122
REMARK   54  A    between atoms: _124  and  _126
REMARK   55  A    between atoms: _126  and  _127
REMARK   56  A    between atoms: _126  and  _129
REMARK   57  A    between atoms: _129  and  _130
REMARK   58  A    between atoms: _133  and  _135
REMARK   59  A    between atoms: _135  and  _136
REMARK   60  A    between atoms: _138  and  _140
REMARK   61  A    between atoms: _140  and  _141
REMARK   62  A    between atoms: _143  and  _145
REMARK   63  A    between atoms: _145  and  _146
REMARK   64  A    between atoms: _145  and  _148
REMARK   65  A    between atoms: _148  and  _149
REMARK   66  A    between atoms: _152  and  _154
REMARK   67  A    between atoms: _154  and  _155
REMARK   68  A    between atoms: _157  and  _159
REMARK   69  A    between atoms: _159  and  _160
REMARK   70  A    between atoms: _162  and  _164
REMARK   71  A    between atoms: _164  and  _165
REMARK   72  A    between atoms: _164  and  _167
REMARK   73  A    between atoms: _167  and  _168
REMARK   74  A    between atoms: _171  and  _173
REMARK   75  A    between atoms: _173  and  _174
REMARK   76  A    between atoms: _173  and  _176
REMARK   77  A    between atoms: _176  and  _177
REMARK   78  A    between atoms: _181  and  _182
REMARK   79  A    between atoms: _187  and  _189
REMARK   80  A    between atoms: _189  and  _190
REMARK   81  A    between atoms: _189  and  _192
REMARK   82  A    between atoms: _192  and  _193
REMARK   83  A    between atoms: _197  and  _198
REMARK   84  A    between atoms: _203  and  _205
REMARK   85  A    between atoms: _205  and  _206
REMARK   86  A    between atoms: _205  and  _208
REMARK   87  A    between atoms: _211  and  _213
REMARK   88  A    between atoms: _213  and  _214
REMARK   89  A    between atoms: _213  and  _216
REMARK   90  A    between atoms: _216  and  _217
REMARK   91  A    between atoms: _222  and  _224
REMARK   92  A    between atoms: _224  and  _225
REMARK   93  A    between atoms: _224  and  _227
REMARK   94  A    between atoms: _227  and  _228
REMARK   95  A    between atoms: _231  and  _233
REMARK   96  A    between atoms: _233  and  _234
REMARK   97  A    between atoms: _233  and  _236
REMARK   98  A    between atoms: _236  and  _237
REMARK   99  A    between atoms: _240  and  _242
REMARK  100  A    between atoms: _242  and  _243
REMARK  101  A    between atoms: _245  and  _247
REMARK  102  A    between atoms: _247  and  _248
REMARK  103  A    between atoms: _247  and  _250
REMARK  104  A    between atoms: _250  and  _251
REMARK  105  A    between atoms: _251  and  _252
REMARK  106  A    between atoms: _252  and  _253
REMARK  107  A    between atoms: _262  and  _264
REMARK  108  A    between atoms: _264  and  _265
REMARK  109  A    between atoms: _264  and  _267
REMARK  110  A    between atoms: _267  and  _268
REMARK  111  A    between atoms: _273  and  _275
REMARK  112  A    between atoms: _275  and  _276
REMARK  113  A    between atoms: _275  and  _278
REMARK  114  A    between atoms: _278  and  _279
REMARK  115  A    between atoms: _279  and  _280
REMARK  116  A    between atoms: _280  and  _281
REMARK  117  A    between atoms: _290  and  _292
REMARK  118  A    between atoms: _292  and  _293
REMARK  119  A    between atoms: _292  and  _295
REMARK  120  A    between atoms: _295  and  _296
REMARK  121  A    between atoms: _299  and  _301
REMARK  122  A    between atoms: _301  and  _302
REMARK  123  A    between atoms: _301  and  _304
REMARK  124  A    between atoms: _304  and  _305
REMARK  125  A    between atoms: _308  and  _310
REMARK  126  A    between atoms: _310  and  _311
REMARK  127  A    between atoms: _310  and  _313
REMARK  128  A    between atoms: _313  and  _314
REMARK  129  A    between atoms: _317  and  _319
REMARK  130  A    between atoms: _319  and  _320
REMARK  131  A    between atoms: _319  and  _322
REMARK  132  A    between atoms: _322  and  _323
REMARK  133  A    between atoms: _326  and  _328
REMARK  134  A    between atoms: _328  and  _329
REMARK  135  A    between atoms: _328  and  _331
REMARK  136  A    between atoms: _331  and  _332
REMARK  137  A    between atoms: _335  and  _337
REMARK  138  A    between atoms: _337  and  _338
REMARK  139  A    between atoms: _340  and  _342
REMARK  140  A    between atoms: _342  and  _343
REMARK  141  A    between atoms: _346  and  _348
REMARK  142  A    between atoms: _348  and  _349
REMARK  143  A    between atoms: _348  and  _351
REMARK  144  A    between atoms: _351  and  _352
REMARK  145  A    between atoms: _355  and  _357
REMARK  146  A    between atoms: _357  and  _358
REMARK  147  A    between atoms: _357  and  _360
REMARK  148  A    between atoms: _360  and  _361
REMARK  149  A    between atoms: _366  and  _368
REMARK  150  A    between atoms: _368  and  _369
REMARK  151  A    between atoms: _368  and  _371
REMARK  152  A    between atoms: _371  and  _372
REMARK  153  A    between atoms: _375  and  _377
REMARK  154  A    between atoms: _377  and  _378
REMARK  155  A    between atoms: _377  and  _380
REMARK  156  A    between atoms: _383  and  _385
REMARK  157  A    between atoms: _385  and  _386
REMARK  158  A    between atoms: _385  and  _388
REMARK  159  A    between atoms: _388  and  _389
REMARK  160  A    between atoms: _389  and  _390
REMARK  161  A    between atoms: _390  and  _391
REMARK  162  A    between atoms: _391  and  _392
REMARK  163  A    between atoms: _396  and  _398
REMARK  164  A    between atoms: _398  and  _399
REMARK  165  A    between atoms: _398  and  _401
REMARK  166  A    between atoms: _401  and  _402
REMARK  167  A    between atoms: _402  and  _403
REMARK  168  A    between atoms: _405  and  _407
REMARK  169  A    between atoms: _407  and  _408
REMARK  170  A    between atoms: _407  and  _410
REMARK  171  A    between atoms: _410  and  _411
REMARK  172  A    between atoms: _414  and  _416
REMARK  173  A    between atoms: _416  and  _417
REMARK  174  A    between atoms: _419  and  _421
REMARK  175  A    between atoms: _421  and  _422
REMARK  176  A    between atoms: _424  and  _426
REMARK  177  A    between atoms: _426  and  _427
REMARK  178  A    between atoms: _426  and  _429
REMARK  179  A    between atoms: _429  and  _430
REMARK  180  A    between atoms: _433  and  _435
REMARK  181  A    between atoms: _435  and  _436
REMARK  182  A    between atoms: _438  and  _440
REMARK  183  A    between atoms: _440  and  _441
REMARK  184  A    between atoms: _443  and  _445
REMARK  185  A    between atoms: _445  and  _446
REMARK  186  A    between atoms: _445  and  _448
REMARK  187  A    between atoms: _448  and  _449
REMARK  188  A    between atoms: _455  and  _457
REMARK  189  A    between atoms: _457  and  _458
REMARK  190  A    between atoms: _457  and  _460
REMARK  191  A    between atoms: _460  and  _461
REMARK  192  A    between atoms: _464  and  _466
REMARK  193  A    between atoms: _466  and  _467
REMARK  194  A    between atoms: _466  and  _469
REMARK  195  A    between atoms: _472  and  _474
REMARK  196  A    between atoms: _474  and  _475
REMARK  197  A    between atoms: _474  and  _477
REMARK  198  A    between atoms: _477  and  _478
REMARK  199  A    between atoms: _481  and  _483
REMARK  200  A    between atoms: _483  and  _484
REMARK  201  A    between atoms: _483  and  _486
REMARK  202  A    between atoms: _486  and  _487
REMARK  203  A    between atoms: _491  and  _492
REMARK  204  A    between atoms: _497  and  _499
REMARK  205  A    between atoms: _499  and  _500
REMARK  206  A    between atoms: _499  and  _502
REMARK  207  A    between atoms: _505  and  _507
REMARK  208  A    between atoms: _507  and  _508
REMARK  209  A    between atoms: _507  and  _510
REMARK  210  A    between atoms: _510  and  _511
REMARK  211  A    between atoms: _516  and  _518
REMARK  212  A    between atoms: _518  and  _519
REMARK  213  A    between atoms: _518  and  _521
REMARK  214  A    between atoms: _521  and  _522
REMARK  215  A    between atoms: _525  and  _527
REMARK  216  A    between atoms: _527  and  _528
REMARK  217  A    between atoms: _527  and  _530
REMARK  218  A    between atoms: _530  and  _531
REMARK  219  A    between atoms: _534  and  _536
REMARK  220  A    between atoms: _536  and  _537
REMARK  221  A    between atoms: _539  and  _541
REMARK  222  A    between atoms: _541  and  _542
REMARK  223  A    between atoms: _541  and  _544
REMARK  224  A    between atoms: _544  and  _545
REMARK  225  A    between atoms: _545  and  _546
REMARK  226  A    between atoms: _546  and  _547
REMARK  227  A    between atoms: _556  and  _558
REMARK  228  A    between atoms: _558  and  _559
REMARK  229  A    between atoms: _558  and  _561
REMARK  230  A    between atoms: _561  and  _562
REMARK                            x       y       z     vdW  Elec       q    Type
REMARK                         _______ _______ _______ _____ _____    ______ ____
ROOT
ATOM      1  O   HOH     1      -0.265  25.519  22.557  0.00  0.00    +0.000 OA
ENDROOT
TORSDOF 0
REMARK  Name = ../refined-set-2016/2pyn/2pyn_pocket.pdb
REMARK  230 active torsions:
REMARK  status: ('A' for Active; 'I' for Inactive)
REMARK    1  A    between atoms: _1  and  _3
REMARK    2  A    between atoms: _3  and  _4
REMARK    3  A    between atoms: _3  and  _6
REMARK    4  A    between atoms: _6  and  _7
REMARK    5  A    between atoms: _7  and  _8
REMARK    6  A    between atoms: _8  and  _9
REMARK    7  A    between atoms: _18  and  _20
REMARK    8  A    between atoms: _20  and  _21
REMARK    9  A    between atoms: _20  and  _23
REMARK   10  A    between atoms: _23  and  _24
REMARK   11  A    between atoms: _27  and  _29
REMARK   12  A    between atoms: _29  and  _30
REMARK   13  A    between atoms: _29  and  _32
REMARK   14  A    between atoms: _32  and  _33
REMARK   15  A    between atoms: _36  and  _38
REMARK   16  A    between atoms: _38  and  _39
REMARK   17  A    between atoms: _38  and  _41
REMARK   18  A    between atoms: _41  and  _42
REMARK   19  A    between atoms: _45  and  _47
REMARK   20  A    between atoms: _47  and  _48
REMARK   21  A    between atoms: _47  and  _50
REMARK   22  A    between atoms: _50  and  _51
REMARK   23  A    between atoms: _54  and  _56
REMARK   24  A    between atoms: _56  and  _57
REMARK   25  A    between atoms: _59  and  _61
REMARK   26  A    between atoms: _61  and  _62
REMARK   27  A    between atoms: _65  and  _67
REMARK   28  A    between atoms: _67  and  _68
REMARK   29  A    between atoms: _67  and  _70
REMARK   30  A    between atoms: _70  and  _71
REMARK   31  A    between atoms: _74  and  _76
REMARK   32  A    between atoms: _76  and  _77
REMARK   33  A    between atoms: _76  and  _79
REMARK   34  A    between atoms: _79  and  _80
REMARK   35  A    between atoms: _85  and  _87
REMARK   36  A    between atoms: _87  and  _88
REMARK   37  A    between atoms: _87  and  _90
REMARK   38  A    between atoms: _90  and  _91
REMARK   39  A    between atoms: _94  and  _96
REMARK   40  A    between atoms: _96  and  _97
REMARK   41  A    between atoms: _96  and  _99
REMARK   42  A    between atoms: _102  and  _104
REMARK   43  A    between atoms: _104  and  _105
REMARK   44  A    between atoms: _104  and  _107
REMARK   45  A    between atoms: _107  and  _108
REMARK   46  A    between atoms: _108  and  _109
REMARK   47  A    between atoms: _109  and  _110
REMARK   48  A    between atoms: _110  and  _111
REMARK   49  A    between atoms: _115  and  _117
REMARK   50  A    between atoms: _117  and  _118
REMARK   51  A    between atoms: _117  and  _120
REMARK   52  A    between atoms: _120  and  _121
REMARK   53  A    between atoms: _121  and  _122
REMARK   54  A    between atoms: _124  and  _126
REMARK   55  A    between atoms: _126  and  _127
REMARK   56  A    between atoms: _126  and  _129
REMARK   57  A    between atoms: _129  and  _130
REMARK   58  A    between atoms: _133  and  _135
REMARK   59  A    between atoms: _135  and  _136
REMARK   60  A    between atoms: _138  and  _140
REMARK   61  A    between atoms: _140  and  _141
REMARK   62  A    between atoms: _143  and  _145
REMARK   63  A    between atoms: _145  and  _146
REMARK   64  A    between atoms: _145  and  _148
REMARK   65  A    between atoms: _148  and  _149
REMARK   66  A    between atoms: _152  and  _154
REMARK   67  A    between atoms: _154  and  _155
REMARK   68  A    between atoms: _157  and  _159
REMARK   69  A    between atoms: _159  and  _160
REMARK   70  A    between atoms: _162  and  _164
REMARK   71  A    between atoms: _164  and  _165
REMARK   72  A    between atoms: _164  and  _167
REMARK   73  A    between atoms: _167  and  _168
REMARK   74  A    between atoms: _171  and  _173
REMARK   75  A    between atoms: _173  and  _174
REMARK   76  A    between atoms: _173  and  _176
REMARK   77  A    between atoms: _176  and  _177
REMARK   78  A    between atoms: _181  and  _182
REMARK   79  A    between atoms: _187  and  _189
REMARK   80  A    between atoms: _189  and  _190
REMARK   81  A    between atoms: _189  and  _192
REMARK   82  A    between atoms: _192  and  _193
REMARK   83  A    between atoms: _197  and  _198
REMARK   84  A    between atoms: _203  and  _205
REMARK   85  A    between atoms: _205  and  _206
REMARK   86  A    between atoms: _205  and  _208
REMARK   87  A    between atoms: _211  and  _213
REMARK   88  A    between atoms: _213  and  _214
REMARK   89  A    between atoms: _213  and  _216
REMARK   90  A    between atoms: _216  and  _217
REMARK   91  A    between atoms: _222  and  _224
REMARK   92  A    between atoms: _224  and  _225
REMARK   93  A    between atoms: _224  and  _227
REMARK   94  A    between atoms: _227  and  _228
REMARK   95  A    between atoms: _231  and  _233
REMARK   96  A    between atoms: _233  and  _234
REMARK   97  A    between atoms: _233  and  _236
REMARK   98  A    between atoms: _236  and  _237
REMARK   99  A    between atoms: _240  and  _242
REMARK  100  A    between atoms: _242  and  _243
REMARK  101  A    between atoms: _245  and  _247
REMARK  102  A    between atoms: _247  and  _248
REMARK  103  A    between atoms: _247  and  _250
REMARK  104  A    between atoms: _250  and  _251
REMARK  105  A    between atoms: _251  and  _252
REMARK  106  A    between atoms: _252  and  _253
REMARK  107  A    between atoms: _262  and  _264
REMARK  108  A    between atoms: _264  and  _265
REMARK  109  A    between atoms: _264  and  _267
REMARK  110  A    between atoms: _267  and  _268
REMARK  111  A    between atoms: _273  and  _275
REMARK  112  A    between atoms: _275  and  _276
REMARK  113  A    between atoms: _275  and  _278
REMARK  114  A    between atoms: _278  and  _279
REMARK  115  A    between atoms: _279  and  _280
REMARK  116  A    between atoms: _280  and  _281
REMARK  117  A    between atoms: _290  and  _292
REMARK  118  A    between atoms: _292  and  _293
REMARK  119  A    between atoms: _292  and  _295
REMARK  120  A    between atoms: _295  and  _296
REMARK  121  A    between atoms: _299  and  _301
REMARK  122  A    between atoms: _301  and  _302
REMARK  123  A    between atoms: _301  and  _304
REMARK  124  A    between atoms: _304  and  _305
REMARK  125  A    between atoms: _308  and  _310
REMARK  126  A    between atoms: _310  and  _311
REMARK  127  A    between atoms: _310  and  _313
REMARK  128  A    between atoms: _313  and  _314
REMARK  129  A    between atoms: _317  and  _319
REMARK  130  A    between atoms: _319  and  _320
REMARK  131  A    between atoms: _319  and  _322
REMARK  132  A    between atoms: _322  and  _323
REMARK  133  A    between atoms: _326  and  _328
REMARK  134  A    between atoms: _328  and  _329
REMARK  135  A    between atoms: _328  and  _331
REMARK  136  A    between atoms: _331  and  _332
REMARK  137  A    between atoms: _335  and  _337
REMARK  138  A    between atoms: _337  and  _338
REMARK  139  A    between atoms: _340  and  _342
REMARK  140  A    between atoms: _342  and  _343
REMARK  141  A    between atoms: _346  and  _348
REMARK  142  A    between atoms: _348  and  _349
REMARK  143  A    between atoms: _348  and  _351
REMARK  144  A    between atoms: _351  and  _352
REMARK  145  A    between atoms: _355  and  _357
REMARK  146  A    between atoms: _357  and  _358
REMARK  147  A    between atoms: _357  and  _360
REMARK  148  A    between atoms: _360  and  _361
REMARK  149  A    between atoms: _366  and  _368
REMARK  150  A    between atoms: _368  and  _369
REMARK  151  A    between atoms: _368  and  _371
REMARK  152  A    between atoms: _371  and  _372
REMARK  153  A    between atoms: _375  and  _377
REMARK  154  A    between atoms: _377  and  _378
REMARK  155  A    between atoms: _377  and  _380
REMARK  156  A    between atoms: _383  and  _385
REMARK  157  A    between atoms: _385  and  _386
REMARK  158  A    between atoms: _385  and  _388
REMARK  159  A    between atoms: _388  and  _389
REMARK  160  A    between atoms: _389  and  _390
REMARK  161  A    between atoms: _390  and  _391
REMARK  162  A    between atoms: _391  and  _392
REMARK  163  A    between atoms: _396  and  _398
REMARK  164  A    between atoms: _398  and  _399
REMARK  165  A    between atoms: _398  and  _401
REMARK  166  A    between atoms: _401  and  _402
REMARK  167  A    between atoms: _402  and  _403
REMARK  168  A    between atoms: _405  and  _407
REMARK  169  A    between atoms: _407  and  _408
REMARK  170  A    between atoms: _407  and  _410
REMARK  171  A    between atoms: _410  and  _411
REMARK  172  A    between atoms: _414  and  _416
REMARK  173  A    between atoms: _416  and  _417
REMARK  174  A    between atoms: _419  and  _421
REMARK  175  A    between atoms: _421  and  _422
REMARK  176  A    between atoms: _424  and  _426
REMARK  177  A    between atoms: _426  and  _427
REMARK  178  A    between atoms: _426  and  _429
REMARK  179  A    between atoms: _429  and  _430
REMARK  180  A    between atoms: _433  and  _435
REMARK  181  A    between atoms: _435  and  _436
REMARK  182  A    between atoms: _438  and  _440
REMARK  183  A    between atoms: _440  and  _441
REMARK  184  A    between atoms: _443  and  _445
REMARK  185  A    between atoms: _445  and  _446
REMARK  186  A    between atoms: _445  and  _448
REMARK  187  A    between atoms: _448  and  _449
REMARK  188  A    between atoms: _455  and  _457
REMARK  189  A    between atoms: _457  and  _458
REMARK  190  A    between atoms: _457  and  _460
REMARK  191  A    between atoms: _460  and  _461
REMARK  192  A    between atoms: _464  and  _466
REMARK  193  A    between atoms: _466  and  _467
REMARK  194  A    between atoms: _466  and  _469
REMARK  195  A    between atoms: _472  and  _474
REMARK  196  A    between atoms: _474  and  _475
REMARK  197  A    between atoms: _474  and  _477
REMARK  198  A    between atoms: _477  and  _478
REMARK  199  A    between atoms: _481  and  _483
REMARK  200  A    between atoms: _483  and  _484
REMARK  201  A    between atoms: _483  and  _486
REMARK  202  A    between atoms: _486  and  _487
REMARK  203  A    between atoms: _491  and  _492
REMARK  204  A    between atoms: _497  and  _499
REMARK  205  A    between atoms: _499  and  _500
REMARK  206  A    between atoms: _499  and  _502
REMARK  207  A    between atoms: _505  and  _507
REMARK  208  A    between atoms: _507  and  _508
REMARK  209  A    between atoms: _507  and  _510
REMARK  210  A    between atoms: _510  and  _511
REMARK  211  A    between atoms: _516  and  _518
REMARK  212  A    between atoms: _518  and  _519
REMARK  213  A    between atoms: _518  and  _521
REMARK  214  A    between atoms: _521  and  _522
REMARK  215  A    between atoms: _525  and  _527
REMARK  216  A    between atoms: _527  and  _528
REMARK  217  A    between atoms: _527  and  _530
REMARK  218  A    between atoms: _530  and  _531
REMARK  219  A    between atoms: _534  and  _536
REMARK  220  A    between atoms: _536  and  _537
REMARK  221  A    between atoms: _539  and  _541
REMARK  222  A    between atoms: _541  and  _542
REMARK  223  A    between atoms: _541  and  _544
REMARK  224  A    between atoms: _544  and  _545
REMARK  225  A    between atoms: _545  and  _546
REMARK  226  A    between atoms: _546  and  _547
REMARK  227  A    between atoms: _556  and  _558
REMARK  228  A    between atoms: _558  and  _559
REMARK  229  A    between atoms: _558  and  _561
REMARK  230  A    between atoms: _561  and  _562
REMARK                            x       y       z     vdW  Elec       q    Type
REMARK                         _______ _______ _______ _____ _____    ______ ____
ROOT
ATOM      1  O   HOH     1      -0.782  12.372  29.766  0.00  0.00    +0.000 OA
ENDROOT
TORSDOF 0
REMARK  Name = ../refined-set-2016/2pyn/2pyn_pocket.pdb
REMARK  230 active torsions:
REMARK  status: ('A' for Active; 'I' for Inactive)
REMARK    1  A    between atoms: _1  and  _3
REMARK    2  A    between atoms: _3  and  _4
REMARK    3  A    between atoms: _3  and  _6
REMARK    4  A    between atoms: _6  and  _7
REMARK    5  A    between atoms: _7  and  _8
REMARK    6  A    between atoms: _8  and  _9
REMARK    7  A    between atoms: _18  and  _20
REMARK    8  A    between atoms: _20  and  _21
REMARK    9  A    between atoms: _20  and  _23
REMARK   10  A    between atoms: _23  and  _24
REMARK   11  A    between atoms: _27  and  _29
REMARK   12  A    between atoms: _29  and  _30
REMARK   13  A    between atoms: _29  and  _32
REMARK   14  A    between atoms: _32  and  _33
REMARK   15  A    between atoms: _36  and  _38
REMARK   16  A    between atoms: _38  and  _39
REMARK   17  A    between atoms: _38  and  _41
REMARK   18  A    between atoms: _41  and  _42
REMARK   19  A    between atoms: _45  and  _47
REMARK   20  A    between atoms: _47  and  _48
REMARK   21  A    between atoms: _47  and  _50
REMARK   22  A    between atoms: _50  and  _51
REMARK   23  A    between atoms: _54  and  _56
REMARK   24  A    between atoms: _56  and  _57
REMARK   25  A    between atoms: _59  and  _61
REMARK   26  A    between atoms: _61  and  _62
REMARK   27  A    between atoms: _65  and  _67
REMARK   28  A    between atoms: _67  and  _68
REMARK   29  A    between atoms: _67  and  _70
REMARK   30  A    between atoms: _70  and  _71
REMARK   31  A    between atoms: _74  and  _76
REMARK   32  A    between atoms: _76  and  _77
REMARK   33  A    between atoms: _76  and  _79
REMARK   34  A    between atoms: _79  and  _80
REMARK   35  A    between atoms: _85  and  _87
REMARK   36  A    between atoms: _87  and  _88
REMARK   37  A    between atoms: _87  and  _90
REMARK   38  A    between atoms: _90  and  _91
REMARK   39  A    between atoms: _94  and  _96
REMARK   40  A    between atoms: _96  and  _97
REMARK   41  A    between atoms: _96  and  _99
REMARK   42  A    between atoms: _102  and  _104
REMARK   43  A    between atoms: _104  and  _105
REMARK   44  A    between atoms: _104  and  _107
REMARK   45  A    between atoms: _107  and  _108
REMARK   46  A    between atoms: _108  and  _109
REMARK   47  A    between atoms: _109  and  _110
REMARK   48  A    between atoms: _110  and  _111
REMARK   49  A    between atoms: _115  and  _117
REMARK   50  A    between atoms: _117  and  _118
REMARK   51  A    between atoms: _117  and  _120
REMARK   52  A    between atoms: _120  and  _121
REMARK   53  A    between atoms: _121  and  _122
REMARK   54  A    between atoms: _124  and  _126
REMARK   55  A    between atoms: _126  and  _127
REMARK   56  A    between atoms: _126  and  _129
REMARK   57  A    between atoms: _129  and  _130
REMARK   58  A    between atoms: _133  and  _135
REMARK   59  A    between atoms: _135  and  _136
REMARK   60  A    between atoms: _138  and  _140
REMARK   61  A    between atoms: _140  and  _141
REMARK   62  A    between atoms: _143  and  _145
REMARK   63  A    between atoms: _145  and  _146
REMARK   64  A    between atoms: _145  and  _148
REMARK   65  A    between atoms: _148  and  _149
REMARK   66  A    between atoms: _152  and  _154
REMARK   67  A    between atoms: _154  and  _155
REMARK   68  A    between atoms: _157  and  _159
REMARK   69  A    between atoms: _159  and  _160
REMARK   70  A    between atoms: _162  and  _164
REMARK   71  A    between atoms: _164  and  _165
REMARK   72  A    between atoms: _164  and  _167
REMARK   73  A    between atoms: _167  and  _168
REMARK   74  A    between atoms: _171  and  _173
REMARK   75  A    between atoms: _173  and  _174
REMARK   76  A    between atoms: _173  and  _176
REMARK   77  A    between atoms: _176  and  _177
REMARK   78  A    between atoms: _181  and  _182
REMARK   79  A    between atoms: _187  and  _189
REMARK   80  A    between atoms: _189  and  _190
REMARK   81  A    between atoms: _189  and  _192
REMARK   82  A    between atoms: _192  and  _193
REMARK   83  A    between atoms: _197  and  _198
REMARK   84  A    between atoms: _203  and  _205
REMARK   85  A    between atoms: _205  and  _206
REMARK   86  A    between atoms: _205  and  _208
REMARK   87  A    between atoms: _211  and  _213
REMARK   88  A    between atoms: _213  and  _214
REMARK   89  A    between atoms: _213  and  _216
REMARK   90  A    between atoms: _216  and  _217
REMARK   91  A    between atoms: _222  and  _224
REMARK   92  A    between atoms: _224  and  _225
REMARK   93  A    between atoms: _224  and  _227
REMARK   94  A    between atoms: _227  and  _228
REMARK   95  A    between atoms: _231  and  _233
REMARK   96  A    between atoms: _233  and  _234
REMARK   97  A    between atoms: _233  and  _236
REMARK   98  A    between atoms: _236  and  _237
REMARK   99  A    between atoms: _240  and  _242
REMARK  100  A    between atoms: _242  and  _243
REMARK  101  A    between atoms: _245  and  _247
REMARK  102  A    between atoms: _247  and  _248
REMARK  103  A    between atoms: _247  and  _250
REMARK  104  A    between atoms: _250  and  _251
REMARK  105  A    between atoms: _251  and  _252
REMARK  106  A    between atoms: _252  and  _253
REMARK  107  A    between atoms: _262  and  _264
REMARK  108  A    between atoms: _264  and  _265
REMARK  109  A    between atoms: _264  and  _267
REMARK  110  A    between atoms: _267  and  _268
REMARK  111  A    between atoms: _273  and  _275
REMARK  112  A    between atoms: _275  and  _276
REMARK  113  A    between atoms: _275  and  _278
REMARK  114  A    between atoms: _278  and  _279
REMARK  115  A    between atoms: _279  and  _280
REMARK  116  A    between atoms: _280  and  _281
REMARK  117  A    between atoms: _290  and  _292
REMARK  118  A    between atoms: _292  and  _293
REMARK  119  A    between atoms: _292  and  _295
REMARK  120  A    between atoms: _295  and  _296
REMARK  121  A    between atoms: _299  and  _301
REMARK  122  A    between atoms: _301  and  _302
REMARK  123  A    between atoms: _301  and  _304
REMARK  124  A    between atoms: _304  and  _305
REMARK  125  A    between atoms: _308  and  _310
REMARK  126  A    between atoms: _310  and  _311
REMARK  127  A    between atoms: _310  and  _313
REMARK  128  A    between atoms: _313  and  _314
REMARK  129  A    between atoms: _317  and  _319
REMARK  130  A    between atoms: _319  and  _320
REMARK  131  A    between atoms: _319  and  _322
REMARK  132  A    between atoms: _322  and  _323
REMARK  133  A    between atoms: _326  and  _328
REMARK  134  A    between atoms: _328  and  _329
REMARK  135  A    between atoms: _328  and  _331
REMARK  136  A    between atoms: _331  and  _332
REMARK  137  A    between atoms: _335  and  _337
REMARK  138  A    between atoms: _337  and  _338
REMARK  139  A    between atoms: _340  and  _342
REMARK  140  A    between atoms: _342  and  _343
REMARK  141  A    between atoms: _346  and  _348
REMARK  142  A    between atoms: _348  and  _349
REMARK  143  A    between atoms: _348  and  _351
REMARK  144  A    between atoms: _351  and  _352
REMARK  145  A    between atoms: _355  and  _357
REMARK  146  A    between atoms: _357  and  _358
REMARK  147  A    between atoms: _357  and  _360
REMARK  148  A    between atoms: _360  and  _361
REMARK  149  A    between atoms: _366  and  _368
REMARK  150  A    between atoms: _368  and  _369
REMARK  151  A    between atoms: _368  and  _371
REMARK  152  A    between atoms: _371  and  _372
REMARK  153  A    between atoms: _375  and  _377
REMARK  154  A    between atoms: _377  and  _378
REMARK  155  A    between atoms: _377  and  _380
REMARK  156  A    between atoms: _383  and  _385
REMARK  157  A    between atoms: _385  and  _386
REMARK  158  A    between atoms: _385  and  _388
REMARK  159  A    between atoms: _388  and  _389
REMARK  160  A    between atoms: _389  and  _390
REMARK  161  A    between atoms: _390  and  _391
REMARK  162  A    between atoms: _391  and  _392
REMARK  163  A    between atoms: _396  and  _398
REMARK  164  A    between atoms: _398  and  _399
REMARK  165  A    between atoms: _398  and  _401
REMARK  166  A    between atoms: _401  and  _402
REMARK  167  A    between atoms: _402  and  _403
REMARK  168  A    between atoms: _405  and  _407
REMARK  169  A    between atoms: _407  and  _408
REMARK  170  A    between atoms: _407  and  _410
REMARK  171  A    between atoms: _410  and  _411
REMARK  172  A    between atoms: _414  and  _416
REMARK  173  A    between atoms: _416  and  _417
REMARK  174  A    between atoms: _419  and  _421
REMARK  175  A    between atoms: _421  and  _422
REMARK  176  A    between atoms: _424  and  _426
REMARK  177  A    between atoms: _426  and  _427
REMARK  178  A    between atoms: _426  and  _429
REMARK  179  A    between atoms: _429  and  _430
REMARK  180  A    between atoms: _433  and  _435
REMARK  181  A    between atoms: _435  and  _436
REMARK  182  A    between atoms: _438  and  _440
REMARK  183  A    between atoms: _440  and  _441
REMARK  184  A    between atoms: _443  and  _445
REMARK  185  A    between atoms: _445  and  _446
REMARK  186  A    between atoms: _445  and  _448
REMARK  187  A    between atoms: _448  and  _449
REMARK  188  A    between atoms: _455  and  _457
REMARK  189  A    between atoms: _457  and  _458
REMARK  190  A    between atoms: _457  and  _460
REMARK  191  A    between atoms: _460  and  _461
REMARK  192  A    between atoms: _464  and  _466
REMARK  193  A    between atoms: _466  and  _467
REMARK  194  A    between atoms: _466  and  _469
REMARK  195  A    between atoms: _472  and  _474
REMARK  196  A    between atoms: _474  and  _475
REMARK  197  A    between atoms: _474  and  _477
REMARK  198  A    between atoms: _477  and  _478
REMARK  199  A    between atoms: _481  and  _483
REMARK  200  A    between atoms: _483  and  _484
REMARK  201  A    between atoms: _483  and  _486
REMARK  202  A    between atoms: _486  and  _487
REMARK  203  A    between atoms: _491  and  _492
REMARK  204  A    between atoms: _497  and  _499
REMARK  205  A    between atoms: _499  and  _500
REMARK  206  A    between atoms: _499  and  _502
REMARK  207  A    between atoms: _505  and  _507
REMARK  208  A    between atoms: _507  and  _508
REMARK  209  A    between atoms: _507  and  _510
REMARK  210  A    between atoms: _510  and  _511
REMARK  211  A    between atoms: _516  and  _518
REMARK  212  A    between atoms: _518  and  _519
REMARK  213  A    between atoms: _518  and  _521
REMARK  214  A    between atoms: _521  and  _522
REMARK  215  A    between atoms: _525  and  _527
REMARK  216  A    between atoms: _527  and  _528
REMARK  217  A    between atoms: _527  and  _530
REMARK  218  A    between atoms: _530  and  _531
REMARK  219  A    between atoms: _534  and  _536
REMARK  220  A    between atoms: _536  and  _537
REMARK  221  A    between atoms: _539  and  _541
REMARK  222  A    between atoms: _541  and  _542
REMARK  223  A    between atoms: _541  and  _544
REMARK  224  A    between atoms: _544  and  _545
REMARK  225  A    between atoms: _545  and  _546
REMARK  226  A    between atoms: _546  and  _547
REMARK  227  A    between atoms: _556  and  _558
REMARK  228  A    between atoms: _558  and  _559
REMARK  229  A    between atoms: _558  and  _561
REMARK  230  A    between atoms: _561  and  _562
REMARK                            x       y       z     vdW  Elec       q    Type
REMARK                         _______ _______ _______ _____ _____    ______ ____
ROOT
ATOM      1  O   HOH     1       2.446  21.941  26.760  0.00  0.00    +0.000 OA
ENDROOT
TORSDOF 0
REMARK  Name = ../refined-set-2016/2pyn/2pyn_pocket.pdb
REMARK  230 active torsions:
REMARK  status: ('A' for Active; 'I' for Inactive)
REMARK    1  A    between atoms: _1  and  _3
REMARK    2  A    between atoms: _3  and  _4
REMARK    3  A    between atoms: _3  and  _6
REMARK    4  A    between atoms: _6  and  _7
REMARK    5  A    between atoms: _7  and  _8
REMARK    6  A    between atoms: _8  and  _9
REMARK    7  A    between atoms: _18  and  _20
REMARK    8  A    between atoms: _20  and  _21
REMARK    9  A    between atoms: _20  and  _23
REMARK   10  A    between atoms: _23  and  _24
REMARK   11  A    between atoms: _27  and  _29
REMARK   12  A    between atoms: _29  and  _30
REMARK   13  A    between atoms: _29  and  _32
REMARK   14  A    between atoms: _32  and  _33
REMARK   15  A    between atoms: _36  and  _38
REMARK   16  A    between atoms: _38  and  _39
REMARK   17  A    between atoms: _38  and  _41
REMARK   18  A    between atoms: _41  and  _42
REMARK   19  A    between atoms: _45  and  _47
REMARK   20  A    between atoms: _47  and  _48
REMARK   21  A    between atoms: _47  and  _50
REMARK   22  A    between atoms: _50  and  _51
REMARK   23  A    between atoms: _54  and  _56
REMARK   24  A    between atoms: _56  and  _57
REMARK   25  A    between atoms: _59  and  _61
REMARK   26  A    between atoms: _61  and  _62
REMARK   27  A    between atoms: _65  and  _67
REMARK   28  A    between atoms: _67  and  _68
REMARK   29  A    between atoms: _67  and  _70
REMARK   30  A    between atoms: _70  and  _71
REMARK   31  A    between atoms: _74  and  _76
REMARK   32  A    between atoms: _76  and  _77
REMARK   33  A    between atoms: _76  and  _79
REMARK   34  A    between atoms: _79  and  _80
REMARK   35  A    between atoms: _85  and  _87
REMARK   36  A    between atoms: _87  and  _88
REMARK   37  A    between atoms: _87  and  _90
REMARK   38  A    between atoms: _90  and  _91
REMARK   39  A    between atoms: _94  and  _96
REMARK   40  A    between atoms: _96  and  _97
REMARK   41  A    between atoms: _96  and  _99
REMARK   42  A    between atoms: _102  and  _104
REMARK   43  A    between atoms: _104  and  _105
REMARK   44  A    between atoms: _104  and  _107
REMARK   45  A    between atoms: _107  and  _108
REMARK   46  A    between atoms: _108  and  _109
REMARK   47  A    between atoms: _109  and  _110
REMARK   48  A    between atoms: _110  and  _111
REMARK   49  A    between atoms: _115  and  _117
REMARK   50  A    between atoms: _117  and  _118
REMARK   51  A    between atoms: _117  and  _120
REMARK   52  A    between atoms: _120  and  _121
REMARK   53  A    between atoms: _121  and  _122
REMARK   54  A    between atoms: _124  and  _126
REMARK   55  A    between atoms: _126  and  _127
REMARK   56  A    between atoms: _126  and  _129
REMARK   57  A    between atoms: _129  and  _130
REMARK   58  A    between atoms: _133  and  _135
REMARK   59  A    between atoms: _135  and  _136
REMARK   60  A    between atoms: _138  and  _140
REMARK   61  A    between atoms: _140  and  _141
REMARK   62  A    between atoms: _143  and  _145
REMARK   63  A    between atoms: _145  and  _146
REMARK   64  A    between atoms: _145  and  _148
REMARK   65  A    between atoms: _148  and  _149
REMARK   66  A    between atoms: _152  and  _154
REMARK   67  A    between atoms: _154  and  _155
REMARK   68  A    between atoms: _157  and  _159
REMARK   69  A    between atoms: _159  and  _160
REMARK   70  A    between atoms: _162  and  _164
REMARK   71  A    between atoms: _164  and  _165
REMARK   72  A    between atoms: _164  and  _167
REMARK   73  A    between atoms: _167  and  _168
REMARK   74  A    between atoms: _171  and  _173
REMARK   75  A    between atoms: _173  and  _174
REMARK   76  A    between atoms: _173  and  _176
REMARK   77  A    between atoms: _176  and  _177
REMARK   78  A    between atoms: _181  and  _182
REMARK   79  A    between atoms: _187  and  _189
REMARK   80  A    between atoms: _189  and  _190
REMARK   81  A    between atoms: _189  and  _192
REMARK   82  A    between atoms: _192  and  _193
REMARK   83  A    between atoms: _197  and  _198
REMARK   84  A    between atoms: _203  and  _205
REMARK   85  A    between atoms: _205  and  _206
REMARK   86  A    between atoms: _205  and  _208
REMARK   87  A    between atoms: _211  and  _213
REMARK   88  A    between atoms: _213  and  _214
REMARK   89  A    between atoms: _213  and  _216
REMARK   90  A    between atoms: _216  and  _217
REMARK   91  A    between atoms: _222  and  _224
REMARK   92  A    between atoms: _224  and  _225
REMARK   93  A    between atoms: _224  and  _227
REMARK   94  A    between atoms: _227  and  _228
REMARK   95  A    between atoms: _231  and  _233
REMARK   96  A    between atoms: _233  and  _234
REMARK   97  A    between atoms: _233  and  _236
REMARK   98  A    between atoms: _236  and  _237
REMARK   99  A    between atoms: _240  and  _242
REMARK  100  A    between atoms: _242  and  _243
REMARK  101  A    between atoms: _245  and  _247
REMARK  102  A    between atoms: _247  and  _248
REMARK  103  A    between atoms: _247  and  _250
REMARK  104  A    between atoms: _250  and  _251
REMARK  105  A    between atoms: _251  and  _252
REMARK  106  A    between atoms: _252  and  _253
REMARK  107  A    between atoms: _262  and  _264
REMARK  108  A    between atoms: _264  and  _265
REMARK  109  A    between atoms: _264  and  _267
REMARK  110  A    between atoms: _267  and  _268
REMARK  111  A    between atoms: _273  and  _275
REMARK  112  A    between atoms: _275  and  _276
REMARK  113  A    between atoms: _275  and  _278
REMARK  114  A    between atoms: _278  and  _279
REMARK  115  A    between atoms: _279  and  _280
REMARK  116  A    between atoms: _280  and  _281
REMARK  117  A    between atoms: _290  and  _292
REMARK  118  A    between atoms: _292  and  _293
REMARK  119  A    between atoms: _292  and  _295
REMARK  120  A    between atoms: _295  and  _296
REMARK  121  A    between atoms: _299  and  _301
REMARK  122  A    between atoms: _301  and  _302
REMARK  123  A    between atoms: _301  and  _304
REMARK  124  A    between atoms: _304  and  _305
REMARK  125  A    between atoms: _308  and  _310
REMARK  126  A    between atoms: _310  and  _311
REMARK  127  A    between atoms: _310  and  _313
REMARK  128  A    between atoms: _313  and  _314
REMARK  129  A    between atoms: _317  and  _319
REMARK  130  A    between atoms: _319  and  _320
REMARK  131  A    between atoms: _319  and  _322
REMARK  132  A    between atoms: _322  and  _323
REMARK  133  A    between atoms: _326  and  _328
REMARK  134  A    between atoms: _328  and  _329
REMARK  135  A    between atoms: _328  and  _331
REMARK  136  A    between atoms: _331  and  _332
REMARK  137  A    between atoms: _335  and  _337
REMARK  138  A    between atoms: _337  and  _338
REMARK  139  A    between atoms: _340  and  _342
REMARK  140  A    between atoms: _342  and  _343
REMARK  141  A    between atoms: _346  and  _348
REMARK  142  A    between atoms: _348  and  _349
REMARK  143  A    between atoms: _348  and  _351
REMARK  144  A    between atoms: _351  and  _352
REMARK  145  A    between atoms: _355  and  _357
REMARK  146  A    between atoms: _357  and  _358
REMARK  147  A    between atoms: _357  and  _360
REMARK  148  A    between atoms: _360  and  _361
REMARK  149  A    between atoms: _366  and  _368
REMARK  150  A    between atoms: _368  and  _369
REMARK  151  A    between atoms: _368  and  _371
REMARK  152  A    between atoms: _371  and  _372
REMARK  153  A    between atoms: _375  and  _377
REMARK  154  A    between atoms: _377  and  _378
REMARK  155  A    between atoms: _377  and  _380
REMARK  156  A    between atoms: _383  and  _385
REMARK  157  A    between atoms: _385  and  _386
REMARK  158  A    between atoms: _385  and  _388
REMARK  159  A    between atoms: _388  and  _389
REMARK  160  A    between atoms: _389  and  _390
REMARK  161  A    between atoms: _390  and  _391
REMARK  162  A    between atoms: _391  and  _392
REMARK  163  A    between atoms: _396  and  _398
REMARK  164  A    between atoms: _398  and  _399
REMARK  165  A    between atoms: _398  and  _401
REMARK  166  A    between atoms: _401  and  _402
REMARK  167  A    between atoms: _402  and  _403
REMARK  168  A    between atoms: _405  and  _407
REMARK  169  A    between atoms: _407  and  _408
REMARK  170  A    between atoms: _407  and  _410
REMARK  171  A    between atoms: _410  and  _411
REMARK  172  A    between atoms: _414  and  _416
REMARK  173  A    between atoms: _416  and  _417
REMARK  174  A    between atoms: _419  and  _421
REMARK  175  A    between atoms: _421  and  _422
REMARK  176  A    between atoms: _424  and  _426
REMARK  177  A    between atoms: _426  and  _427
REMARK  178  A    between atoms: _426  and  _429
REMARK  179  A    between atoms: _429  and  _430
REMARK  180  A    between atoms: _433  and  _435
REMARK  181  A    between atoms: _435  and  _436
REMARK  182  A    between atoms: _438  and  _440
REMARK  183  A    between atoms: _440  and  _441
REMARK  184  A    between atoms: _443  and  _445
REMARK  185  A    between atoms: _445  and  _446
REMARK  186  A    between atoms: _445  and  _448
REMARK  187  A    between atoms: _448  and  _449
REMARK  188  A    between atoms: _455  and  _457
REMARK  189  A    between atoms: _457  and  _458
REMARK  190  A    between atoms: _457  and  _460
REMARK  191  A    between atoms: _460  and  _461
REMARK  192  A    between atoms: _464  and  _466
REMARK  193  A    between atoms: _466  and  _467
REMARK  194  A    between atoms: _466  and  _469
REMARK  195  A    between atoms: _472  and  _474
REMARK  196  A    between atoms: _474  and  _475
REMARK  197  A    between atoms: _474  and  _477
REMARK  198  A    between atoms: _477  and  _478
REMARK  199  A    between atoms: _481  and  _483
REMARK  200  A    between atoms: _483  and  _484
REMARK  201  A    between atoms: _483  and  _486
REMARK  202  A    between atoms: _486  and  _487
REMARK  203  A    between atoms: _491  and  _492
REMARK  204  A    between atoms: _497  and  _499
REMARK  205  A    between atoms: _499  and  _500
REMARK  206  A    between atoms: _499  and  _502
REMARK  207  A    between atoms: _505  and  _507
REMARK  208  A    between atoms: _507  and  _508
REMARK  209  A    between atoms: _507  and  _510
REMARK  210  A    between atoms: _510  and  _511
REMARK  211  A    between atoms: _516  and  _518
REMARK  212  A    between atoms: _518  and  _519
REMARK  213  A    between atoms: _518  and  _521
REMARK  214  A    between atoms: _521  and  _522
REMARK  215  A    between atoms: _525  and  _527
REMARK  216  A    between atoms: _527  and  _528
REMARK  217  A    between atoms: _527  and  _530
REMARK  218  A    between atoms: _530  and  _531
REMARK  219  A    between atoms: _534  and  _536
REMARK  220  A    between atoms: _536  and  _537
REMARK  221  A    between atoms: _539  and  _541
REMARK  222  A    between atoms: _541  and  _542
REMARK  223  A    between atoms: _541  and  _544
REMARK  224  A    between atoms: _544  and  _545
REMARK  225  A    between atoms: _545  and  _546
REMARK  226  A    between atoms: _546  and  _547
REMARK  227  A    between atoms: _556  and  _558
REMARK  228  A    between atoms: _558  and  _559
REMARK  229  A    between atoms: _558  and  _561
REMARK  230  A    between atoms: _561  and  _562
REMARK                            x       y       z     vdW  Elec       q    Type
REMARK                         _______ _______ _______ _____ _____    ______ ____
ROOT
ATOM      1  O   HOH     1       0.314  19.175  22.787  0.00  0.00    +0.000 OA
ENDROOT
TORSDOF 0
REMARK  Name = ../refined-set-2016/2pyn/2pyn_pocket.pdb
REMARK  230 active torsions:
REMARK  status: ('A' for Active; 'I' for Inactive)
REMARK    1  A    between atoms: _1  and  _3
REMARK    2  A    between atoms: _3  and  _4
REMARK    3  A    between atoms: _3  and  _6
REMARK    4  A    between atoms: _6  and  _7
REMARK    5  A    between atoms: _7  and  _8
REMARK    6  A    between atoms: _8  and  _9
REMARK    7  A    between atoms: _18  and  _20
REMARK    8  A    between atoms: _20  and  _21
REMARK    9  A    between atoms: _20  and  _23
REMARK   10  A    between atoms: _23  and  _24
REMARK   11  A    between atoms: _27  and  _29
REMARK   12  A    between atoms: _29  and  _30
REMARK   13  A    between atoms: _29  and  _32
REMARK   14  A    between atoms: _32  and  _33
REMARK   15  A    between atoms: _36  and  _38
REMARK   16  A    between atoms: _38  and  _39
REMARK   17  A    between atoms: _38  and  _41
REMARK   18  A    between atoms: _41  and  _42
REMARK   19  A    between atoms: _45  and  _47
REMARK   20  A    between atoms: _47  and  _48
REMARK   21  A    between atoms: _47  and  _50
REMARK   22  A    between atoms: _50  and  _51
REMARK   23  A    between atoms: _54  and  _56
REMARK   24  A    between atoms: _56  and  _57
REMARK   25  A    between atoms: _59  and  _61
REMARK   26  A    between atoms: _61  and  _62
REMARK   27  A    between atoms: _65  and  _67
REMARK   28  A    between atoms: _67  and  _68
REMARK   29  A    between atoms: _67  and  _70
REMARK   30  A    between atoms: _70  and  _71
REMARK   31  A    between atoms: _74  and  _76
REMARK   32  A    between atoms: _76  and  _77
REMARK   33  A    between atoms: _76  and  _79
REMARK   34  A    between atoms: _79  and  _80
REMARK   35  A    between atoms: _85  and  _87
REMARK   36  A    between atoms: _87  and  _88
REMARK   37  A    between atoms: _87  and  _90
REMARK   38  A    between atoms: _90  and  _91
REMARK   39  A    between atoms: _94  and  _96
REMARK   40  A    between atoms: _96  and  _97
REMARK   41  A    between atoms: _96  and  _99
REMARK   42  A    between atoms: _102  and  _104
REMARK   43  A    between atoms: _104  and  _105
REMARK   44  A    between atoms: _104  and  _107
REMARK   45  A    between atoms: _107  and  _108
REMARK   46  A    between atoms: _108  and  _109
REMARK   47  A    between atoms: _109  and  _110
REMARK   48  A    between atoms: _110  and  _111
REMARK   49  A    between atoms: _115  and  _117
REMARK   50  A    between atoms: _117  and  _118
REMARK   51  A    between atoms: _117  and  _120
REMARK   52  A    between atoms: _120  and  _121
REMARK   53  A    between atoms: _121  and  _122
REMARK   54  A    between atoms: _124  and  _126
REMARK   55  A    between atoms: _126  and  _127
REMARK   56  A    between atoms: _126  and  _129
REMARK   57  A    between atoms: _129  and  _130
REMARK   58  A    between atoms: _133  and  _135
REMARK   59  A    between atoms: _135  and  _136
REMARK   60  A    between atoms: _138  and  _140
REMARK   61  A    between atoms: _140  and  _141
REMARK   62  A    between atoms: _143  and  _145
REMARK   63  A    between atoms: _145  and  _146
REMARK   64  A    between atoms: _145  and  _148
REMARK   65  A    between atoms: _148  and  _149
REMARK   66  A    between atoms: _152  and  _154
REMARK   67  A    between atoms: _154  and  _155
REMARK   68  A    between atoms: _157  and  _159
REMARK   69  A    between atoms: _159  and  _160
REMARK   70  A    between atoms: _162  and  _164
REMARK   71  A    between atoms: _164  and  _165
REMARK   72  A    between atoms: _164  and  _167
REMARK   73  A    between atoms: _167  and  _168
REMARK   74  A    between atoms: _171  and  _173
REMARK   75  A    between atoms: _173  and  _174
REMARK   76  A    between atoms: _173  and  _176
REMARK   77  A    between atoms: _176  and  _177
REMARK   78  A    between atoms: _181  and  _182
REMARK   79  A    between atoms: _187  and  _189
REMARK   80  A    between atoms: _189  and  _190
REMARK   81  A    between atoms: _189  and  _192
REMARK   82  A    between atoms: _192  and  _193
REMARK   83  A    between atoms: _197  and  _198
REMARK   84  A    between atoms: _203  and  _205
REMARK   85  A    between atoms: _205  and  _206
REMARK   86  A    between atoms: _205  and  _208
REMARK   87  A    between atoms: _211  and  _213
REMARK   88  A    between atoms: _213  and  _214
REMARK   89  A    between atoms: _213  and  _216
REMARK   90  A    between atoms: _216  and  _217
REMARK   91  A    between atoms: _222  and  _224
REMARK   92  A    between atoms: _224  and  _225
REMARK   93  A    between atoms: _224  and  _227
REMARK   94  A    between atoms: _227  and  _228
REMARK   95  A    between atoms: _231  and  _233
REMARK   96  A    between atoms: _233  and  _234
REMARK   97  A    between atoms: _233  and  _236
REMARK   98  A    between atoms: _236  and  _237
REMARK   99  A    between atoms: _240  and  _242
REMARK  100  A    between atoms: _242  and  _243
REMARK  101  A    between atoms: _245  and  _247
REMARK  102  A    between atoms: _247  and  _248
REMARK  103  A    between atoms: _247  and  _250
REMARK  104  A    between atoms: _250  and  _251
REMARK  105  A    between atoms: _251  and  _252
REMARK  106  A    between atoms: _252  and  _253
REMARK  107  A    between atoms: _262  and  _264
REMARK  108  A    between atoms: _264  and  _265
REMARK  109  A    between atoms: _264  and  _267
REMARK  110  A    between atoms: _267  and  _268
REMARK  111  A    between atoms: _273  and  _275
REMARK  112  A    between atoms: _275  and  _276
REMARK  113  A    between atoms: _275  and  _278
REMARK  114  A    between atoms: _278  and  _279
REMARK  115  A    between atoms: _279  and  _280
REMARK  116  A    between atoms: _280  and  _281
REMARK  117  A    between atoms: _290  and  _292
REMARK  118  A    between atoms: _292  and  _293
REMARK  119  A    between atoms: _292  and  _295
REMARK  120  A    between atoms: _295  and  _296
REMARK  121  A    between atoms: _299  and  _301
REMARK  122  A    between atoms: _301  and  _302
REMARK  123  A    between atoms: _301  and  _304
REMARK  124  A    between atoms: _304  and  _305
REMARK  125  A    between atoms: _308  and  _310
REMARK  126  A    between atoms: _310  and  _311
REMARK  127  A    between atoms: _310  and  _313
REMARK  128  A    between atoms: _313  and  _314
REMARK  129  A    between atoms: _317  and  _319
REMARK  130  A    between atoms: _319  and  _320
REMARK  131  A    between atoms: _319  and  _322
REMARK  132  A    between atoms: _322  and  _323
REMARK  133  A    between atoms: _326  and  _328
REMARK  134  A    between atoms: _328  and  _329
REMARK  135  A    between atoms: _328  and  _331
REMARK  136  A    between atoms: _331  and  _332
REMARK  137  A    between atoms: _335  and  _337
REMARK  138  A    between atoms: _337  and  _338
REMARK  139  A    between atoms: _340  and  _342
REMARK  140  A    between atoms: _342  and  _343
REMARK  141  A    between atoms: _346  and  _348
REMARK  142  A    between atoms: _348  and  _349
REMARK  143  A    between atoms: _348  and  _351
REMARK  144  A    between atoms: _351  and  _352
REMARK  145  A    between atoms: _355  and  _357
REMARK  146  A    between atoms: _357  and  _358
REMARK  147  A    between atoms: _357  and  _360
REMARK  148  A    between atoms: _360  and  _361
REMARK  149  A    between atoms: _366  and  _368
REMARK  150  A    between atoms: _368  and  _369
REMARK  151  A    between atoms: _368  and  _371
REMARK  152  A    between atoms: _371  and  _372
REMARK  153  A    between atoms: _375  and  _377
REMARK  154  A    between atoms: _377  and  _378
REMARK  155  A    between atoms: _377  and  _380
REMARK  156  A    between atoms: _383  and  _385
REMARK  157  A    between atoms: _385  and  _386
REMARK  158  A    between atoms: _385  and  _388
REMARK  159  A    between atoms: _388  and  _389
REMARK  160  A    between atoms: _389  and  _390
REMARK  161  A    between atoms: _390  and  _391
REMARK  162  A    between atoms: _391  and  _392
REMARK  163  A    between atoms: _396  and  _398
REMARK  164  A    between atoms: _398  and  _399
REMARK  165  A    between atoms: _398  and  _401
REMARK  166  A    between atoms: _401  and  _402
REMARK  167  A    between atoms: _402  and  _403
REMARK  168  A    between atoms: _405  and  _407
REMARK  169  A    between atoms: _407  and  _408
REMARK  170  A    between atoms: _407  and  _410
REMARK  171  A    between atoms: _410  and  _411
REMARK  172  A    between atoms: _414  and  _416
REMARK  173  A    between atoms: _416  and  _417
REMARK  174  A    between atoms: _419  and  _421
REMARK  175  A    between atoms: _421  and  _422
REMARK  176  A    between atoms: _424  and  _426
REMARK  177  A    between atoms: _426  and  _427
REMARK  178  A    between atoms: _426  and  _429
REMARK  179  A    between atoms: _429  and  _430
REMARK  180  A    between atoms: _433  and  _435
REMARK  181  A    between atoms: _435  and  _436
REMARK  182  A    between atoms: _438  and  _440
REMARK  183  A    between atoms: _440  and  _441
REMARK  184  A    between atoms: _443  and  _445
REMARK  185  A    between atoms: _445  and  _446
REMARK  186  A    between atoms: _445  and  _448
REMARK  187  A    between atoms: _448  and  _449
REMARK  188  A    between atoms: _455  and  _457
REMARK  189  A    between atoms: _457  and  _458
REMARK  190  A    between atoms: _457  and  _460
REMARK  191  A    between atoms: _460  and  _461
REMARK  192  A    between atoms: _464  and  _466
REMARK  193  A    between atoms: _466  and  _467
REMARK  194  A    between atoms: _466  and  _469
REMARK  195  A    between atoms: _472  and  _474
REMARK  196  A    between atoms: _474  and  _475
REMARK  197  A    between atoms: _474  and  _477
REMARK  198  A    between atoms: _477  and  _478
REMARK  199  A    between atoms: _481  and  _483
REMARK  200  A    between atoms: _483  and  _484
REMARK  201  A    between atoms: _483  and  _486
REMARK  202  A    between atoms: _486  and  _487
REMARK  203  A    between atoms: _491  and  _492
REMARK  204  A    between atoms: _497  and  _499
REMARK  205  A    between atoms: _499  and  _500
REMARK  206  A    between atoms: _499  and  _502
REMARK  207  A    between atoms: _505  and  _507
REMARK  208  A    between atoms: _507  and  _508
REMARK  209  A    between atoms: _507  and  _510
REMARK  210  A    between atoms: _510  and  _511
REMARK  211  A    between atoms: _516  and  _518
REMARK  212  A    between atoms: _518  and  _519
REMARK  213  A    between atoms: _518  and  _521
REMARK  214  A    between atoms: _521  and  _522
REMARK  215  A    between atoms: _525  and  _527
REMARK  216  A    between atoms: _527  and  _528
REMARK  217  A    between atoms: _527  and  _530
REMARK  218  A    between atoms: _530  and  _531
REMARK  219  A    between atoms: _534  and  _536
REMARK  220  A    between atoms: _536  and  _537
REMARK  221  A    between atoms: _539  and  _541
REMARK  222  A    between atoms: _541  and  _542
REMARK  223  A    between atoms: _541  and  _544
REMARK  224  A    between atoms: _544  and  _545
REMARK  225  A    between atoms: _545  and  _546
REMARK  226  A    between atoms: _546  and  _547
REMARK  227  A    between atoms: _556  and  _558
REMARK  228  A    between atoms: _558  and  _559
REMARK  229  A    between atoms: _558  and  _561
REMARK  230  A    between atoms: _561  and  _562
REMARK                            x       y       z     vdW  Elec       q    Type
REMARK                         _______ _______ _______ _____ _____    ______ ____
ROOT
ATOM      1  O   HOH     1     -11.080  10.384  35.589  0.00  0.00    +0.000 OA
ENDROOT
TORSDOF 0
REMARK  Name = ../refined-set-2016/2pyn/2pyn_pocket.pdb
REMARK  230 active torsions:
REMARK  status: ('A' for Active; 'I' for Inactive)
REMARK    1  A    between atoms: _1  and  _3
REMARK    2  A    between atoms: _3  and  _4
REMARK    3  A    between atoms: _3  and  _6
REMARK    4  A    between atoms: _6  and  _7
REMARK    5  A    between atoms: _7  and  _8
REMARK    6  A    between atoms: _8  and  _9
REMARK    7  A    between atoms: _18  and  _20
REMARK    8  A    between atoms: _20  and  _21
REMARK    9  A    between atoms: _20  and  _23
REMARK   10  A    between atoms: _23  and  _24
REMARK   11  A    between atoms: _27  and  _29
REMARK   12  A    between atoms: _29  and  _30
REMARK   13  A    between atoms: _29  and  _32
REMARK   14  A    between atoms: _32  and  _33
REMARK   15  A    between atoms: _36  and  _38
REMARK   16  A    between atoms: _38  and  _39
REMARK   17  A    between atoms: _38  and  _41
REMARK   18  A    between atoms: _41  and  _42
REMARK   19  A    between atoms: _45  and  _47
REMARK   20  A    between atoms: _47  and  _48
REMARK   21  A    between atoms: _47  and  _50
REMARK   22  A    between atoms: _50  and  _51
REMARK   23  A    between atoms: _54  and  _56
REMARK   24  A    between atoms: _56  and  _57
REMARK   25  A    between atoms: _59  and  _61
REMARK   26  A    between atoms: _61  and  _62
REMARK   27  A    between atoms: _65  and  _67
REMARK   28  A    between atoms: _67  and  _68
REMARK   29  A    between atoms: _67  and  _70
REMARK   30  A    between atoms: _70  and  _71
REMARK   31  A    between atoms: _74  and  _76
REMARK   32  A    between atoms: _76  and  _77
REMARK   33  A    between atoms: _76  and  _79
REMARK   34  A    between atoms: _79  and  _80
REMARK   35  A    between atoms: _85  and  _87
REMARK   36  A    between atoms: _87  and  _88
REMARK   37  A    between atoms: _87  and  _90
REMARK   38  A    between atoms: _90  and  _91
REMARK   39  A    between atoms: _94  and  _96
REMARK   40  A    between atoms: _96  and  _97
REMARK   41  A    between atoms: _96  and  _99
REMARK   42  A    between atoms: _102  and  _104
REMARK   43  A    between atoms: _104  and  _105
REMARK   44  A    between atoms: _104  and  _107
REMARK   45  A    between atoms: _107  and  _108
REMARK   46  A    between atoms: _108  and  _109
REMARK   47  A    between atoms: _109  and  _110
REMARK   48  A    between atoms: _110  and  _111
REMARK   49  A    between atoms: _115  and  _117
REMARK   50  A    between atoms: _117  and  _118
REMARK   51  A    between atoms: _117  and  _120
REMARK   52  A    between atoms: _120  and  _121
REMARK   53  A    between atoms: _121  and  _122
REMARK   54  A    between atoms: _124  and  _126
REMARK   55  A    between atoms: _126  and  _127
REMARK   56  A    between atoms: _126  and  _129
REMARK   57  A    between atoms: _129  and  _130
REMARK   58  A    between atoms: _133  and  _135
REMARK   59  A    between atoms: _135  and  _136
REMARK   60  A    between atoms: _138  and  _140
REMARK   61  A    between atoms: _140  and  _141
REMARK   62  A    between atoms: _143  and  _145
REMARK   63  A    between atoms: _145  and  _146
REMARK   64  A    between atoms: _145  and  _148
REMARK   65  A    between atoms: _148  and  _149
REMARK   66  A    between atoms: _152  and  _154
REMARK   67  A    between atoms: _154  and  _155
REMARK   68  A    between atoms: _157  and  _159
REMARK   69  A    between atoms: _159  and  _160
REMARK   70  A    between atoms: _162  and  _164
REMARK   71  A    between atoms: _164  and  _165
REMARK   72  A    between atoms: _164  and  _167
REMARK   73  A    between atoms: _167  and  _168
REMARK   74  A    between atoms: _171  and  _173
REMARK   75  A    between atoms: _173  and  _174
REMARK   76  A    between atoms: _173  and  _176
REMARK   77  A    between atoms: _176  and  _177
REMARK   78  A    between atoms: _181  and  _182
REMARK   79  A    between atoms: _187  and  _189
REMARK   80  A    between atoms: _189  and  _190
REMARK   81  A    between atoms: _189  and  _192
REMARK   82  A    between atoms: _192  and  _193
REMARK   83  A    between atoms: _197  and  _198
REMARK   84  A    between atoms: _203  and  _205
REMARK   85  A    between atoms: _205  and  _206
REMARK   86  A    between atoms: _205  and  _208
REMARK   87  A    between atoms: _211  and  _213
REMARK   88  A    between atoms: _213  and  _214
REMARK   89  A    between atoms: _213  and  _216
REMARK   90  A    between atoms: _216  and  _217
REMARK   91  A    between atoms: _222  and  _224
REMARK   92  A    between atoms: _224  and  _225
REMARK   93  A    between atoms: _224  and  _227
REMARK   94  A    between atoms: _227  and  _228
REMARK   95  A    between atoms: _231  and  _233
REMARK   96  A    between atoms: _233  and  _234
REMARK   97  A    between atoms: _233  and  _236
REMARK   98  A    between atoms: _236  and  _237
REMARK   99  A    between atoms: _240  and  _242
REMARK  100  A    between atoms: _242  and  _243
REMARK  101  A    between atoms: _245  and  _247
REMARK  102  A    between atoms: _247  and  _248
REMARK  103  A    between atoms: _247  and  _250
REMARK  104  A    between atoms: _250  and  _251
REMARK  105  A    between atoms: _251  and  _252
REMARK  106  A    between atoms: _252  and  _253
REMARK  107  A    between atoms: _262  and  _264
REMARK  108  A    between atoms: _264  and  _265
REMARK  109  A    between atoms: _264  and  _267
REMARK  110  A    between atoms: _267  and  _268
REMARK  111  A    between atoms: _273  and  _275
REMARK  112  A    between atoms: _275  and  _276
REMARK  113  A    between atoms: _275  and  _278
REMARK  114  A    between atoms: _278  and  _279
REMARK  115  A    between atoms: _279  and  _280
REMARK  116  A    between atoms: _280  and  _281
REMARK  117  A    between atoms: _290  and  _292
REMARK  118  A    between atoms: _292  and  _293
REMARK  119  A    between atoms: _292  and  _295
REMARK  120  A    between atoms: _295  and  _296
REMARK  121  A    between atoms: _299  and  _301
REMARK  122  A    between atoms: _301  and  _302
REMARK  123  A    between atoms: _301  and  _304
REMARK  124  A    between atoms: _304  and  _305
REMARK  125  A    between atoms: _308  and  _310
REMARK  126  A    between atoms: _310  and  _311
REMARK  127  A    between atoms: _310  and  _313
REMARK  128  A    between atoms: _313  and  _314
REMARK  129  A    between atoms: _317  and  _319
REMARK  130  A    between atoms: _319  and  _320
REMARK  131  A    between atoms: _319  and  _322
REMARK  132  A    between atoms: _322  and  _323
REMARK  133  A    between atoms: _326  and  _328
REMARK  134  A    between atoms: _328  and  _329
REMARK  135  A    between atoms: _328  and  _331
REMARK  136  A    between atoms: _331  and  _332
REMARK  137  A    between atoms: _335  and  _337
REMARK  138  A    between atoms: _337  and  _338
REMARK  139  A    between atoms: _340  and  _342
REMARK  140  A    between atoms: _342  and  _343
REMARK  141  A    between atoms: _346  and  _348
REMARK  142  A    between atoms: _348  and  _349
REMARK  143  A    between atoms: _348  and  _351
REMARK  144  A    between atoms: _351  and  _352
REMARK  145  A    between atoms: _355  and  _357
REMARK  146  A    between atoms: _357  and  _358
REMARK  147  A    between atoms: _357  and  _360
REMARK  148  A    between atoms: _360  and  _361
REMARK  149  A    between atoms: _366  and  _368
REMARK  150  A    between atoms: _368  and  _369
REMARK  151  A    between atoms: _368  and  _371
REMARK  152  A    between atoms: _371  and  _372
REMARK  153  A    between atoms: _375  and  _377
REMARK  154  A    between atoms: _377  and  _378
REMARK  155  A    between atoms: _377  and  _380
REMARK  156  A    between atoms: _383  and  _385
REMARK  157  A    between atoms: _385  and  _386
REMARK  158  A    between atoms: _385  and  _388
REMARK  159  A    between atoms: _388  and  _389
REMARK  160  A    between atoms: _389  and  _390
REMARK  161  A    between atoms: _390  and  _391
REMARK  162  A    between atoms: _391  and  _392
REMARK  163  A    between atoms: _396  and  _398
REMARK  164  A    between atoms: _398  and  _399
REMARK  165  A    between atoms: _398  and  _401
REMARK  166  A    between atoms: _401  and  _402
REMARK  167  A    between atoms: _402  and  _403
REMARK  168  A    between atoms: _405  and  _407
REMARK  169  A    between atoms: _407  and  _408
REMARK  170  A    between atoms: _407  and  _410
REMARK  171  A    between atoms: _410  and  _411
REMARK  172  A    between atoms: _414  and  _416
REMARK  173  A    between atoms: _416  and  _417
REMARK  174  A    between atoms: _419  and  _421
REMARK  175  A    between atoms: _421  and  _422
REMARK  176  A    between atoms: _424  and  _426
REMARK  177  A    between atoms: _426  and  _427
REMARK  178  A    between atoms: _426  and  _429
REMARK  179  A    between atoms: _429  and  _430
REMARK  180  A    between atoms: _433  and  _435
REMARK  181  A    between atoms: _435  and  _436
REMARK  182  A    between atoms: _438  and  _440
REMARK  183  A    between atoms: _440  and  _441
REMARK  184  A    between atoms: _443  and  _445
REMARK  185  A    between atoms: _445  and  _446
REMARK  186  A    between atoms: _445  and  _448
REMARK  187  A    between atoms: _448  and  _449
REMARK  188  A    between atoms: _455  and  _457
REMARK  189  A    between atoms: _457  and  _458
REMARK  190  A    between atoms: _457  and  _460
REMARK  191  A    between atoms: _460  and  _461
REMARK  192  A    between atoms: _464  and  _466
REMARK  193  A    between atoms: _466  and  _467
REMARK  194  A    between atoms: _466  and  _469
REMARK  195  A    between atoms: _472  and  _474
REMARK  196  A    between atoms: _474  and  _475
REMARK  197  A    between atoms: _474  and  _477
REMARK  198  A    between atoms: _477  and  _478
REMARK  199  A    between atoms: _481  and  _483
REMARK  200  A    between atoms: _483  and  _484
REMARK  201  A    between atoms: _483  and  _486
REMARK  202  A    between atoms: _486  and  _487
REMARK  203  A    between atoms: _491  and  _492
REMARK  204  A    between atoms: _497  and  _499
REMARK  205  A    between atoms: _499  and  _500
REMARK  206  A    between atoms: _499  and  _502
REMARK  207  A    between atoms: _505  and  _507
REMARK  208  A    between atoms: _507  and  _508
REMARK  209  A    between atoms: _507  and  _510
REMARK  210  A    between atoms: _510  and  _511
REMARK  211  A    between atoms: _516  and  _518
REMARK  212  A    between atoms: _518  and  _519
REMARK  213  A    between atoms: _518  and  _521
REMARK  214  A    between atoms: _521  and  _522
REMARK  215  A    between atoms: _525  and  _527
REMARK  216  A    between atoms: _527  and  _528
REMARK  217  A    between atoms: _527  and  _530
REMARK  218  A    between atoms: _530  and  _531
REMARK  219  A    between atoms: _534  and  _536
REMARK  220  A    between atoms: _536  and  _537
REMARK  221  A    between atoms: _539  and  _541
REMARK  222  A    between atoms: _541  and  _542
REMARK  223  A    between atoms: _541  and  _544
REMARK  224  A    between atoms: _544  and  _545
REMARK  225  A    between atoms: _545  and  _546
REMARK  226  A    between atoms: _546  and  _547
REMARK  227  A    between atoms: _556  and  _558
REMARK  228  A    between atoms: _558  and  _559
REMARK  229  A    between atoms: _558  and  _561
REMARK  230  A    between atoms: _561  and  _562
REMARK                            x       y       z     vdW  Elec       q    Type
REMARK                         _______ _______ _______ _____ _____    ______ ____
ROOT
ATOM      1  O   HOH     1     -10.372   7.123  30.056  0.00  0.00    +0.000 OA
ENDROOT
TORSDOF 0
REMARK  Name = ../refined-set-2016/2pyn/2pyn_pocket.pdb
REMARK  230 active torsions:
REMARK  status: ('A' for Active; 'I' for Inactive)
REMARK    1  A    between atoms: _1  and  _3
REMARK    2  A    between atoms: _3  and  _4
REMARK    3  A    between atoms: _3  and  _6
REMARK    4  A    between atoms: _6  and  _7
REMARK    5  A    between atoms: _7  and  _8
REMARK    6  A    between atoms: _8  and  _9
REMARK    7  A    between atoms: _18  and  _20
REMARK    8  A    between atoms: _20  and  _21
REMARK    9  A    between atoms: _20  and  _23
REMARK   10  A    between atoms: _23  and  _24
REMARK   11  A    between atoms: _27  and  _29
REMARK   12  A    between atoms: _29  and  _30
REMARK   13  A    between atoms: _29  and  _32
REMARK   14  A    between atoms: _32  and  _33
REMARK   15  A    between atoms: _36  and  _38
REMARK   16  A    between atoms: _38  and  _39
REMARK   17  A    between atoms: _38  and  _41
REMARK   18  A    between atoms: _41  and  _42
REMARK   19  A    between atoms: _45  and  _47
REMARK   20  A    between atoms: _47  and  _48
REMARK   21  A    between atoms: _47  and  _50
REMARK   22  A    between atoms: _50  and  _51
REMARK   23  A    between atoms: _54  and  _56
REMARK   24  A    between atoms: _56  and  _57
REMARK   25  A    between atoms: _59  and  _61
REMARK   26  A    between atoms: _61  and  _62
REMARK   27  A    between atoms: _65  and  _67
REMARK   28  A    between atoms: _67  and  _68
REMARK   29  A    between atoms: _67  and  _70
REMARK   30  A    between atoms: _70  and  _71
REMARK   31  A    between atoms: _74  and  _76
REMARK   32  A    between atoms: _76  and  _77
REMARK   33  A    between atoms: _76  and  _79
REMARK   34  A    between atoms: _79  and  _80
REMARK   35  A    between atoms: _85  and  _87
REMARK   36  A    between atoms: _87  and  _88
REMARK   37  A    between atoms: _87  and  _90
REMARK   38  A    between atoms: _90  and  _91
REMARK   39  A    between atoms: _94  and  _96
REMARK   40  A    between atoms: _96  and  _97
REMARK   41  A    between atoms: _96  and  _99
REMARK   42  A    between atoms: _102  and  _104
REMARK   43  A    between atoms: _104  and  _105
REMARK   44  A    between atoms: _104  and  _107
REMARK   45  A    between atoms: _107  and  _108
REMARK   46  A    between atoms: _108  and  _109
REMARK   47  A    between atoms: _109  and  _110
REMARK   48  A    between atoms: _110  and  _111
REMARK   49  A    between atoms: _115  and  _117
REMARK   50  A    between atoms: _117  and  _118
REMARK   51  A    between atoms: _117  and  _120
REMARK   52  A    between atoms: _120  and  _121
REMARK   53  A    between atoms: _121  and  _122
REMARK   54  A    between atoms: _124  and  _126
REMARK   55  A    between atoms: _126  and  _127
REMARK   56  A    between atoms: _126  and  _129
REMARK   57  A    between atoms: _129  and  _130
REMARK   58  A    between atoms: _133  and  _135
REMARK   59  A    between atoms: _135  and  _136
REMARK   60  A    between atoms: _138  and  _140
REMARK   61  A    between atoms: _140  and  _141
REMARK   62  A    between atoms: _143  and  _145
REMARK   63  A    between atoms: _145  and  _146
REMARK   64  A    between atoms: _145  and  _148
REMARK   65  A    between atoms: _148  and  _149
REMARK   66  A    between atoms: _152  and  _154
REMARK   67  A    between atoms: _154  and  _155
REMARK   68  A    between atoms: _157  and  _159
REMARK   69  A    between atoms: _159  and  _160
REMARK   70  A    between atoms: _162  and  _164
REMARK   71  A    between atoms: _164  and  _165
REMARK   72  A    between atoms: _164  and  _167
REMARK   73  A    between atoms: _167  and  _168
REMARK   74  A    between atoms: _171  and  _173
REMARK   75  A    between atoms: _173  and  _174
REMARK   76  A    between atoms: _173  and  _176
REMARK   77  A    between atoms: _176  and  _177
REMARK   78  A    between atoms: _181  and  _182
REMARK   79  A    between atoms: _187  and  _189
REMARK   80  A    between atoms: _189  and  _190
REMARK   81  A    between atoms: _189  and  _192
REMARK   82  A    between atoms: _192  and  _193
REMARK   83  A    between atoms: _197  and  _198
REMARK   84  A    between atoms: _203  and  _205
REMARK   85  A    between atoms: _205  and  _206
REMARK   86  A    between atoms: _205  and  _208
REMARK   87  A    between atoms: _211  and  _213
REMARK   88  A    between atoms: _213  and  _214
REMARK   89  A    between atoms: _213  and  _216
REMARK   90  A    between atoms: _216  and  _217
REMARK   91  A    between atoms: _222  and  _224
REMARK   92  A    between atoms: _224  and  _225
REMARK   93  A    between atoms: _224  and  _227
REMARK   94  A    between atoms: _227  and  _228
REMARK   95  A    between atoms: _231  and  _233
REMARK   96  A    between atoms: _233  and  _234
REMARK   97  A    between atoms: _233  and  _236
REMARK   98  A    between atoms: _236  and  _237
REMARK   99  A    between atoms: _240  and  _242
REMARK  100  A    between atoms: _242  and  _243
REMARK  101  A    between atoms: _245  and  _247
REMARK  102  A    between atoms: _247  and  _248
REMARK  103  A    between atoms: _247  and  _250
REMARK  104  A    between atoms: _250  and  _251
REMARK  105  A    between atoms: _251  and  _252
REMARK  106  A    between atoms: _252  and  _253
REMARK  107  A    between atoms: _262  and  _264
REMARK  108  A    between atoms: _264  and  _265
REMARK  109  A    between atoms: _264  and  _267
REMARK  110  A    between atoms: _267  and  _268
REMARK  111  A    between atoms: _273  and  _275
REMARK  112  A    between atoms: _275  and  _276
REMARK  113  A    between atoms: _275  and  _278
REMARK  114  A    between atoms: _278  and  _279
REMARK  115  A    between atoms: _279  and  _280
REMARK  116  A    between atoms: _280  and  _281
REMARK  117  A    between atoms: _290  and  _292
REMARK  118  A    between atoms: _292  and  _293
REMARK  119  A    between atoms: _292  and  _295
REMARK  120  A    between atoms: _295  and  _296
REMARK  121  A    between atoms: _299  and  _301
REMARK  122  A    between atoms: _301  and  _302
REMARK  123  A    between atoms: _301  and  _304
REMARK  124  A    between atoms: _304  and  _305
REMARK  125  A    between atoms: _308  and  _310
REMARK  126  A    between atoms: _310  and  _311
REMARK  127  A    between atoms: _310  and  _313
REMARK  128  A    between atoms: _313  and  _314
REMARK  129  A    between atoms: _317  and  _319
REMARK  130  A    between atoms: _319  and  _320
REMARK  131  A    between atoms: _319  and  _322
REMARK  132  A    between atoms: _322  and  _323
REMARK  133  A    between atoms: _326  and  _328
REMARK  134  A    between atoms: _328  and  _329
REMARK  135  A    between atoms: _328  and  _331
REMARK  136  A    between atoms: _331  and  _332
REMARK  137  A    between atoms: _335  and  _337
REMARK  138  A    between atoms: _337  and  _338
REMARK  139  A    between atoms: _340  and  _342
REMARK  140  A    between atoms: _342  and  _343
REMARK  141  A    between atoms: _346  and  _348
REMARK  142  A    between atoms: _348  and  _349
REMARK  143  A    between atoms: _348  and  _351
REMARK  144  A    between atoms: _351  and  _352
REMARK  145  A    between atoms: _355  and  _357
REMARK  146  A    between atoms: _357  and  _358
REMARK  147  A    between atoms: _357  and  _360
REMARK  148  A    between atoms: _360  and  _361
REMARK  149  A    between atoms: _366  and  _368
REMARK  150  A    between atoms: _368  and  _369
REMARK  151  A    between atoms: _368  and  _371
REMARK  152  A    between atoms: _371  and  _372
REMARK  153  A    between atoms: _375  and  _377
REMARK  154  A    between atoms: _377  and  _378
REMARK  155  A    between atoms: _377  and  _380
REMARK  156  A    between atoms: _383  and  _385
REMARK  157  A    between atoms: _385  and  _386
REMARK  158  A    between atoms: _385  and  _388
REMARK  159  A    between atoms: _388  and  _389
REMARK  160  A    between atoms: _389  and  _390
REMARK  161  A    between atoms: _390  and  _391
REMARK  162  A    between atoms: _391  and  _392
REMARK  163  A    between atoms: _396  and  _398
REMARK  164  A    between atoms: _398  and  _399
REMARK  165  A    between atoms: _398  and  _401
REMARK  166  A    between atoms: _401  and  _402
REMARK  167  A    between atoms: _402  and  _403
REMARK  168  A    between atoms: _405  and  _407
REMARK  169  A    between atoms: _407  and  _408
REMARK  170  A    between atoms: _407  and  _410
REMARK  171  A    between atoms: _410  and  _411
REMARK  172  A    between atoms: _414  and  _416
REMARK  173  A    between atoms: _416  and  _417
REMARK  174  A    between atoms: _419  and  _421
REMARK  175  A    between atoms: _421  and  _422
REMARK  176  A    between atoms: _424  and  _426
REMARK  177  A    between atoms: _426  and  _427
REMARK  178  A    between atoms: _426  and  _429
REMARK  179  A    between atoms: _429  and  _430
REMARK  180  A    between atoms: _433  and  _435
REMARK  181  A    between atoms: _435  and  _436
REMARK  182  A    between atoms: _438  and  _440
REMARK  183  A    between atoms: _440  and  _441
REMARK  184  A    between atoms: _443  and  _445
REMARK  185  A    between atoms: _445  and  _446
REMARK  186  A    between atoms: _445  and  _448
REMARK  187  A    between atoms: _448  and  _449
REMARK  188  A    between atoms: _455  and  _457
REMARK  189  A    between atoms: _457  and  _458
REMARK  190  A    between atoms: _457  and  _460
REMARK  191  A    between atoms: _460  and  _461
REMARK  192  A    between atoms: _464  and  _466
REMARK  193  A    between atoms: _466  and  _467
REMARK  194  A    between atoms: _466  and  _469
REMARK  195  A    between atoms: _472  and  _474
REMARK  196  A    between atoms: _474  and  _475
REMARK  197  A    between atoms: _474  and  _477
REMARK  198  A    between atoms: _477  and  _478
REMARK  199  A    between atoms: _481  and  _483
REMARK  200  A    between atoms: _483  and  _484
REMARK  201  A    between atoms: _483  and  _486
REMARK  202  A    between atoms: _486  and  _487
REMARK  203  A    between atoms: _491  and  _492
REMARK  204  A    between atoms: _497  and  _499
REMARK  205  A    between atoms: _499  and  _500
REMARK  206  A    between atoms: _499  and  _502
REMARK  207  A    between atoms: _505  and  _507
REMARK  208  A    between atoms: _507  and  _508
REMARK  209  A    between atoms: _507  and  _510
REMARK  210  A    between atoms: _510  and  _511
REMARK  211  A    between atoms: _516  and  _518
REMARK  212  A    between atoms: _518  and  _519
REMARK  213  A    between atoms: _518  and  _521
REMARK  214  A    between atoms: _521  and  _522
REMARK  215  A    between atoms: _525  and  _527
REMARK  216  A    between atoms: _527  and  _528
REMARK  217  A    between atoms: _527  and  _530
REMARK  218  A    between atoms: _530  and  _531
REMARK  219  A    between atoms: _534  and  _536
REMARK  220  A    between atoms: _536  and  _537
REMARK  221  A    between atoms: _539  and  _541
REMARK  222  A    between atoms: _541  and  _542
REMARK  223  A    between atoms: _541  and  _544
REMARK  224  A    between atoms: _544  and  _545
REMARK  225  A    between atoms: _545  and  _546
REMARK  226  A    between atoms: _546  and  _547
REMARK  227  A    between atoms: _556  and  _558
REMARK  228  A    between atoms: _558  and  _559
REMARK  229  A    between atoms: _558  and  _561
REMARK  230  A    between atoms: _561  and  _562
REMARK                            x       y       z     vdW  Elec       q    Type
REMARK                         _______ _______ _______ _____ _____    ______ ____
ROOT
ATOM      1  O   HOH     1       0.426  24.462  26.794  0.00  0.00    +0.000 OA
ENDROOT
TORSDOF 0
