REMARK  Name = ../refined-set-2016/2xc4/2xc4_pocket.pdb
REMARK  221 active torsions:
REMARK  status: ('A' for Active; 'I' for Inactive)
REMARK    1  A    between atoms: _1  and  _5
REMARK    2  A    between atoms: _5  and  _6
REMARK    3  A    between atoms: _5  and  _8
REMARK    4  A    between atoms: _8  and  _9
REMARK    5  A    between atoms: _12  and  _14
REMARK    6  A    between atoms: _14  and  _15
REMARK    7  A    between atoms: _14  and  _17
REMARK    8  A    between atoms: _20  and  _22
REMARK    9  A    between atoms: _22  and  _23
REMARK   10  A    between atoms: _22  and  _25
REMARK   11  A    between atoms: _25  and  _26
REMARK   12  A    between atoms: _31  and  _33
REMARK   13  A    between atoms: _33  and  _34
REMARK   14  A    between atoms: _33  and  _36
REMARK   15  A    between atoms: _36  and  _37
REMARK   16  A    between atoms: _37  and  _38
REMARK   17  A    between atoms: _43  and  _45
REMARK   18  A    between atoms: _45  and  _46
REMARK   19  A    between atoms: _45  and  _48
REMARK   20  A    between atoms: _48  and  _49
REMARK   21  A    between atoms: _52  and  _54
REMARK   22  A    between atoms: _54  and  _55
REMARK   23  A    between atoms: _54  and  _57
REMARK   24  A    between atoms: _57  and  _58
REMARK   25  A    between atoms: _58  and  _59
REMARK   26  A    between atoms: _59  and  _60
REMARK   27  A    between atoms: _60  and  _61
REMARK   28  A    between atoms: _65  and  _67
REMARK   29  A    between atoms: _67  and  _68
REMARK   30  A    between atoms: _67  and  _70
REMARK   31  A    between atoms: _70  and  _71
REMARK   32  A    between atoms: _71  and  _72
REMARK   33  A    between atoms: _75  and  _77
REMARK   34  A    between atoms: _77  and  _78
REMARK   35  A    between atoms: _77  and  _80
REMARK   36  A    between atoms: _80  and  _81
REMARK   37  A    between atoms: _84  and  _86
REMARK   38  A    between atoms: _86  and  _87
REMARK   39  A    between atoms: _86  and  _89
REMARK   40  A    between atoms: _89  and  _90
REMARK   41  A    between atoms: _95  and  _96
REMARK   42  A    between atoms: _98  and  _100
REMARK   43  A    between atoms: _100  and  _101
REMARK   44  A    between atoms: _100  and  _103
REMARK   45  A    between atoms: _103  and  _104
REMARK   46  A    between atoms: _107  and  _109
REMARK   47  A    between atoms: _109  and  _110
REMARK   48  A    between atoms: _109  and  _112
REMARK   49  A    between atoms: _112  and  _113
REMARK   50  A    between atoms: _116  and  _118
REMARK   51  A    between atoms: _118  and  _119
REMARK   52  A    between atoms: _118  and  _121
REMARK   53  A    between atoms: _124  and  _126
REMARK   54  A    between atoms: _126  and  _127
REMARK   55  A    between atoms: _126  and  _129
REMARK   56  A    between atoms: _129  and  _130
REMARK   57  A    between atoms: _130  and  _131
REMARK   58  A    between atoms: _131  and  _132
REMARK   59  A    between atoms: _141  and  _143
REMARK   60  A    between atoms: _143  and  _144
REMARK   61  A    between atoms: _143  and  _146
REMARK   62  A    between atoms: _146  and  _147
REMARK   63  A    between atoms: _152  and  _154
REMARK   64  A    between atoms: _154  and  _155
REMARK   65  A    between atoms: _154  and  _157
REMARK   66  A    between atoms: _157  and  _158
REMARK   67  A    between atoms: _158  and  _159
REMARK   68  A    between atoms: _162  and  _164
REMARK   69  A    between atoms: _164  and  _165
REMARK   70  A    between atoms: _164  and  _167
REMARK   71  A    between atoms: _167  and  _168
REMARK   72  A    between atoms: _168  and  _169
REMARK   73  A    between atoms: _169  and  _170
REMARK   74  A    between atoms: _170  and  _171
REMARK   75  A    between atoms: _175  and  _177
REMARK   76  A    between atoms: _177  and  _178
REMARK   77  A    between atoms: _180  and  _182
REMARK   78  A    between atoms: _182  and  _183
REMARK   79  A    between atoms: _182  and  _185
REMARK   80  A    between atoms: _188  and  _190
REMARK   81  A    between atoms: _190  and  _191
REMARK   82  A    between atoms: _190  and  _193
REMARK   83  A    between atoms: _193  and  _194
REMARK   84  A    between atoms: _196  and  _198
REMARK   85  A    between atoms: _198  and  _199
REMARK   86  A    between atoms: _198  and  _201
REMARK   87  A    between atoms: _201  and  _202
REMARK   88  A    between atoms: _204  and  _206
REMARK   89  A    between atoms: _206  and  _207
REMARK   90  A    between atoms: _206  and  _209
REMARK   91  A    between atoms: _209  and  _210
REMARK   92  A    between atoms: _216  and  _218
REMARK   93  A    between atoms: _218  and  _219
REMARK   94  A    between atoms: _218  and  _221
REMARK   95  A    between atoms: _221  and  _222
REMARK   96  A    between atoms: _225  and  _227
REMARK   97  A    between atoms: _227  and  _228
REMARK   98  A    between atoms: _227  and  _230
REMARK   99  A    between atoms: _230  and  _231
REMARK  100  A    between atoms: _234  and  _236
REMARK  101  A    between atoms: _236  and  _237
REMARK  102  A    between atoms: _236  and  _239
REMARK  103  A    between atoms: _239  and  _240
REMARK  104  A    between atoms: _243  and  _245
REMARK  105  A    between atoms: _245  and  _246
REMARK  106  A    between atoms: _245  and  _248
REMARK  107  A    between atoms: _248  and  _249
REMARK  108  A    between atoms: _249  and  _250
REMARK  109  A    between atoms: _252  and  _254
REMARK  110  A    between atoms: _254  and  _255
REMARK  111  A    between atoms: _254  and  _257
REMARK  112  A    between atoms: _257  and  _258
REMARK  113  A    between atoms: _264  and  _266
REMARK  114  A    between atoms: _266  and  _267
REMARK  115  A    between atoms: _266  and  _269
REMARK  116  A    between atoms: _271  and  _273
REMARK  117  A    between atoms: _273  and  _274
REMARK  118  A    between atoms: _277  and  _279
REMARK  119  A    between atoms: _279  and  _280
REMARK  120  A    between atoms: _282  and  _284
REMARK  121  A    between atoms: _284  and  _285
REMARK  122  A    between atoms: _284  and  _287
REMARK  123  A    between atoms: _287  and  _288
REMARK  124  A    between atoms: _288  and  _289
REMARK  125  A    between atoms: _292  and  _294
REMARK  126  A    between atoms: _294  and  _295
REMARK  127  A    between atoms: _294  and  _297
REMARK  128  A    between atoms: _297  and  _298
REMARK  129  A    between atoms: _301  and  _303
REMARK  130  A    between atoms: _303  and  _304
REMARK  131  A    between atoms: _307  and  _309
REMARK  132  A    between atoms: _309  and  _310
REMARK  133  A    between atoms: _309  and  _312
REMARK  134  A    between atoms: _312  and  _313
REMARK  135  A    between atoms: _313  and  _436
REMARK  136  A    between atoms: _314  and  _316
REMARK  137  A    between atoms: _316  and  _317
REMARK  138  A    between atoms: _316  and  _319
REMARK  139  A    between atoms: _319  and  _320
REMARK  140  A    between atoms: _320  and  _321
REMARK  141  A    between atoms: _326  and  _328
REMARK  142  A    between atoms: _328  and  _329
REMARK  143  A    between atoms: _331  and  _333
REMARK  144  A    between atoms: _333  and  _334
REMARK  145  A    between atoms: _333  and  _336
REMARK  146  A    between atoms: _336  and  _337
REMARK  147  A    between atoms: _340  and  _342
REMARK  148  A    between atoms: _342  and  _343
REMARK  149  A    between atoms: _342  and  _345
REMARK  150  A    between atoms: _345  and  _346
REMARK  151  A    between atoms: _348  and  _350
REMARK  152  A    between atoms: _350  and  _351
REMARK  153  A    between atoms: _353  and  _355
REMARK  154  A    between atoms: _355  and  _356
REMARK  155  A    between atoms: _358  and  _360
REMARK  156  A    between atoms: _360  and  _361
REMARK  157  A    between atoms: _360  and  _363
REMARK  158  A    between atoms: _363  and  _364
REMARK  159  A    between atoms: _369  and  _371
REMARK  160  A    between atoms: _371  and  _372
REMARK  161  A    between atoms: _371  and  _374
REMARK  162  A    between atoms: _374  and  _375
REMARK  163  A    between atoms: _378  and  _380
REMARK  164  A    between atoms: _380  and  _381
REMARK  165  A    between atoms: _380  and  _383
REMARK  166  A    between atoms: _386  and  _388
REMARK  167  A    between atoms: _388  and  _389
REMARK  168  A    between atoms: _388  and  _391
REMARK  169  A    between atoms: _391  and  _392
REMARK  170  A    between atoms: _394  and  _396
REMARK  171  A    between atoms: _396  and  _397
REMARK  172  A    between atoms: _396  and  _399
REMARK  173  A    between atoms: _399  and  _400
REMARK  174  A    between atoms: _410  and  _412
REMARK  175  A    between atoms: _412  and  _413
REMARK  176  A    between atoms: _415  and  _417
REMARK  177  A    between atoms: _417  and  _418
REMARK  178  A    between atoms: _417  and  _420
REMARK  179  A    between atoms: _420  and  _421
REMARK  180  A    between atoms: _421  and  _422
REMARK  181  A    between atoms: _425  and  _427
REMARK  182  A    between atoms: _427  and  _428
REMARK  183  A    between atoms: _430  and  _432
REMARK  184  A    between atoms: _432  and  _433
REMARK  185  A    between atoms: _432  and  _435
REMARK  186  A    between atoms: _435  and  _436
REMARK  187  A    between atoms: _437  and  _439
REMARK  188  A    between atoms: _439  and  _440
REMARK  189  A    between atoms: _443  and  _445
REMARK  190  A    between atoms: _445  and  _446
REMARK  191  A    between atoms: _445  and  _448
REMARK  192  A    between atoms: _448  and  _449
REMARK  193  A    between atoms: _449  and  _450
REMARK  194  A    between atoms: _450  and  _451
REMARK  195  A    between atoms: _460  and  _462
REMARK  196  A    between atoms: _462  and  _463
REMARK  197  A    between atoms: _462  and  _465
REMARK  198  A    between atoms: _465  and  _466
REMARK  199  A    between atoms: _466  and  _467
REMARK  200  A    between atoms: _467  and  _468
REMARK  201  A    between atoms: _468  and  _469
REMARK  202  A    between atoms: _473  and  _475
REMARK  203  A    between atoms: _475  and  _476
REMARK  204  A    between atoms: _475  and  _478
REMARK  205  A    between atoms: _478  and  _479
REMARK  206  A    between atoms: _484  and  _485
REMARK  207  A    between atoms: _487  and  _489
REMARK  208  A    between atoms: _489  and  _490
REMARK  209  A    between atoms: _492  and  _494
REMARK  210  A    between atoms: _494  and  _495
REMARK  211  A    between atoms: _494  and  _497
REMARK  212  A    between atoms: _497  and  _498
REMARK  213  A    between atoms: _501  and  _503
REMARK  214  A    between atoms: _503  and  _504
REMARK  215  A    between atoms: _503  and  _506
REMARK  216  A    between atoms: _506  and  _507
REMARK  217  A    between atoms: _512  and  _513
REMARK  218  A    between atoms: _515  and  _517
REMARK  219  A    between atoms: _517  and  _518
REMARK  220  A    between atoms: _517  and  _520
REMARK  221  A    between atoms: _520  and  _521
REMARK                            x       y       z     vdW  Elec       q    Type
REMARK                         _______ _______ _______ _____ _____    ______ ____
ROOT
ATOM      1  C   ILE A   1       1.602  12.545  34.893  0.00  0.00    +0.202 C 
ATOM      2  O   ILE A   1       1.992  13.505  35.564  0.00  0.00    -0.277 OA
ATOM      3  N   VAL A   2       0.422  11.935  35.060  0.00  0.00    -0.301 N 
ATOM      4  H   VAL A   2       0.233  11.090  34.483  0.00  0.00    +0.150 HD
ENDROOT
BRANCH   1   5
ATOM      5  CA  ILE A   1       2.558  11.884  33.867  0.00  0.00    +0.013 C 
BRANCH   5   6
ATOM      6  N   ILE A   1       3.021  12.898  32.867  0.00  0.00    +0.387 N 
ATOM      7  H1  ILE A   1       3.524  13.664  33.359  0.00  0.00    -0.089 HD
ATOM      8  H2  ILE A   1       2.198  13.289  32.365  0.00  0.00    -0.089 HD
ATOM      9  H3  ILE A   1       3.661  12.443  32.185  0.00  0.00    -0.089 HD
ENDBRANCH   5   6
BRANCH   5  10
ATOM     10  CB  ILE A   1       3.769  11.242  34.651  0.00  0.00    -0.011 C 
ATOM     11  CG2 ILE A   1       3.304  10.280  35.753  0.00  0.00    -0.002 C 
BRANCH  10  12
ATOM     12  CG1 ILE A   1       4.818  10.607  33.711  0.00  0.00    -0.002 C 
ATOM     13  CD1 ILE A   1       4.376   9.275  33.056  0.00  0.00    -0.000 C 
ENDBRANCH  10  12
ENDBRANCH   5  10
ENDBRANCH   1   5
BRANCH   3  14
ATOM     14  CA  VAL A   2      -0.623  12.363  35.990  0.00  0.00    +0.137 C 
BRANCH  14  15
ATOM     15  CB  VAL A   2      -2.020  12.159  35.347  0.00  0.00    +0.026 C 
ATOM     16  CG2 VAL A   2      -3.126  12.701  36.233  0.00  0.00    +0.002 C 
ATOM     17  CG1 VAL A   2      -2.061  12.848  33.969  0.00  0.00    +0.002 C 
ENDBRANCH  14  15
BRANCH  14  18
ATOM     18  C   VAL A   2      -0.483  11.506  37.254  0.00  0.00    +0.227 C 
ATOM     19  O   VAL A   2      -0.511  10.272  37.175  0.00  0.00    -0.286 OA
ENDBRANCH  14  18
ENDBRANCH   3  14
TORSDOF 7
REMARK  Name = ../refined-set-2016/2xc4/2xc4_pocket.pdb
REMARK  221 active torsions:
REMARK  status: ('A' for Active; 'I' for Inactive)
REMARK    1  A    between atoms: _1  and  _5
REMARK    2  A    between atoms: _5  and  _6
REMARK    3  A    between atoms: _5  and  _8
REMARK    4  A    between atoms: _8  and  _9
REMARK    5  A    between atoms: _12  and  _14
REMARK    6  A    between atoms: _14  and  _15
REMARK    7  A    between atoms: _14  and  _17
REMARK    8  A    between atoms: _20  and  _22
REMARK    9  A    between atoms: _22  and  _23
REMARK   10  A    between atoms: _22  and  _25
REMARK   11  A    between atoms: _25  and  _26
REMARK   12  A    between atoms: _31  and  _33
REMARK   13  A    between atoms: _33  and  _34
REMARK   14  A    between atoms: _33  and  _36
REMARK   15  A    between atoms: _36  and  _37
REMARK   16  A    between atoms: _37  and  _38
REMARK   17  A    between atoms: _43  and  _45
REMARK   18  A    between atoms: _45  and  _46
REMARK   19  A    between atoms: _45  and  _48
REMARK   20  A    between atoms: _48  and  _49
REMARK   21  A    between atoms: _52  and  _54
REMARK   22  A    between atoms: _54  and  _55
REMARK   23  A    between atoms: _54  and  _57
REMARK   24  A    between atoms: _57  and  _58
REMARK   25  A    between atoms: _58  and  _59
REMARK   26  A    between atoms: _59  and  _60
REMARK   27  A    between atoms: _60  and  _61
REMARK   28  A    between atoms: _65  and  _67
REMARK   29  A    between atoms: _67  and  _68
REMARK   30  A    between atoms: _67  and  _70
REMARK   31  A    between atoms: _70  and  _71
REMARK   32  A    between atoms: _71  and  _72
REMARK   33  A    between atoms: _75  and  _77
REMARK   34  A    between atoms: _77  and  _78
REMARK   35  A    between atoms: _77  and  _80
REMARK   36  A    between atoms: _80  and  _81
REMARK   37  A    between atoms: _84  and  _86
REMARK   38  A    between atoms: _86  and  _87
REMARK   39  A    between atoms: _86  and  _89
REMARK   40  A    between atoms: _89  and  _90
REMARK   41  A    between atoms: _95  and  _96
REMARK   42  A    between atoms: _98  and  _100
REMARK   43  A    between atoms: _100  and  _101
REMARK   44  A    between atoms: _100  and  _103
REMARK   45  A    between atoms: _103  and  _104
REMARK   46  A    between atoms: _107  and  _109
REMARK   47  A    between atoms: _109  and  _110
REMARK   48  A    between atoms: _109  and  _112
REMARK   49  A    between atoms: _112  and  _113
REMARK   50  A    between atoms: _116  and  _118
REMARK   51  A    between atoms: _118  and  _119
REMARK   52  A    between atoms: _118  and  _121
REMARK   53  A    between atoms: _124  and  _126
REMARK   54  A    between atoms: _126  and  _127
REMARK   55  A    between atoms: _126  and  _129
REMARK   56  A    between atoms: _129  and  _130
REMARK   57  A    between atoms: _130  and  _131
REMARK   58  A    between atoms: _131  and  _132
REMARK   59  A    between atoms: _141  and  _143
REMARK   60  A    between atoms: _143  and  _144
REMARK   61  A    between atoms: _143  and  _146
REMARK   62  A    between atoms: _146  and  _147
REMARK   63  A    between atoms: _152  and  _154
REMARK   64  A    between atoms: _154  and  _155
REMARK   65  A    between atoms: _154  and  _157
REMARK   66  A    between atoms: _157  and  _158
REMARK   67  A    between atoms: _158  and  _159
REMARK   68  A    between atoms: _162  and  _164
REMARK   69  A    between atoms: _164  and  _165
REMARK   70  A    between atoms: _164  and  _167
REMARK   71  A    between atoms: _167  and  _168
REMARK   72  A    between atoms: _168  and  _169
REMARK   73  A    between atoms: _169  and  _170
REMARK   74  A    between atoms: _170  and  _171
REMARK   75  A    between atoms: _175  and  _177
REMARK   76  A    between atoms: _177  and  _178
REMARK   77  A    between atoms: _180  and  _182
REMARK   78  A    between atoms: _182  and  _183
REMARK   79  A    between atoms: _182  and  _185
REMARK   80  A    between atoms: _188  and  _190
REMARK   81  A    between atoms: _190  and  _191
REMARK   82  A    between atoms: _190  and  _193
REMARK   83  A    between atoms: _193  and  _194
REMARK   84  A    between atoms: _196  and  _198
REMARK   85  A    between atoms: _198  and  _199
REMARK   86  A    between atoms: _198  and  _201
REMARK   87  A    between atoms: _201  and  _202
REMARK   88  A    between atoms: _204  and  _206
REMARK   89  A    between atoms: _206  and  _207
REMARK   90  A    between atoms: _206  and  _209
REMARK   91  A    between atoms: _209  and  _210
REMARK   92  A    between atoms: _216  and  _218
REMARK   93  A    between atoms: _218  and  _219
REMARK   94  A    between atoms: _218  and  _221
REMARK   95  A    between atoms: _221  and  _222
REMARK   96  A    between atoms: _225  and  _227
REMARK   97  A    between atoms: _227  and  _228
REMARK   98  A    between atoms: _227  and  _230
REMARK   99  A    between atoms: _230  and  _231
REMARK  100  A    between atoms: _234  and  _236
REMARK  101  A    between atoms: _236  and  _237
REMARK  102  A    between atoms: _236  and  _239
REMARK  103  A    between atoms: _239  and  _240
REMARK  104  A    between atoms: _243  and  _245
REMARK  105  A    between atoms: _245  and  _246
REMARK  106  A    between atoms: _245  and  _248
REMARK  107  A    between atoms: _248  and  _249
REMARK  108  A    between atoms: _249  and  _250
REMARK  109  A    between atoms: _252  and  _254
REMARK  110  A    between atoms: _254  and  _255
REMARK  111  A    between atoms: _254  and  _257
REMARK  112  A    between atoms: _257  and  _258
REMARK  113  A    between atoms: _264  and  _266
REMARK  114  A    between atoms: _266  and  _267
REMARK  115  A    between atoms: _266  and  _269
REMARK  116  A    between atoms: _271  and  _273
REMARK  117  A    between atoms: _273  and  _274
REMARK  118  A    between atoms: _277  and  _279
REMARK  119  A    between atoms: _279  and  _280
REMARK  120  A    between atoms: _282  and  _284
REMARK  121  A    between atoms: _284  and  _285
REMARK  122  A    between atoms: _284  and  _287
REMARK  123  A    between atoms: _287  and  _288
REMARK  124  A    between atoms: _288  and  _289
REMARK  125  A    between atoms: _292  and  _294
REMARK  126  A    between atoms: _294  and  _295
REMARK  127  A    between atoms: _294  and  _297
REMARK  128  A    between atoms: _297  and  _298
REMARK  129  A    between atoms: _301  and  _303
REMARK  130  A    between atoms: _303  and  _304
REMARK  131  A    between atoms: _307  and  _309
REMARK  132  A    between atoms: _309  and  _310
REMARK  133  A    between atoms: _309  and  _312
REMARK  134  A    between atoms: _312  and  _313
REMARK  135  A    between atoms: _313  and  _436
REMARK  136  A    between atoms: _314  and  _316
REMARK  137  A    between atoms: _316  and  _317
REMARK  138  A    between atoms: _316  and  _319
REMARK  139  A    between atoms: _319  and  _320
REMARK  140  A    between atoms: _320  and  _321
REMARK  141  A    between atoms: _326  and  _328
REMARK  142  A    between atoms: _328  and  _329
REMARK  143  A    between atoms: _331  and  _333
REMARK  144  A    between atoms: _333  and  _334
REMARK  145  A    between atoms: _333  and  _336
REMARK  146  A    between atoms: _336  and  _337
REMARK  147  A    between atoms: _340  and  _342
REMARK  148  A    between atoms: _342  and  _343
REMARK  149  A    between atoms: _342  and  _345
REMARK  150  A    between atoms: _345  and  _346
REMARK  151  A    between atoms: _348  and  _350
REMARK  152  A    between atoms: _350  and  _351
REMARK  153  A    between atoms: _353  and  _355
REMARK  154  A    between atoms: _355  and  _356
REMARK  155  A    between atoms: _358  and  _360
REMARK  156  A    between atoms: _360  and  _361
REMARK  157  A    between atoms: _360  and  _363
REMARK  158  A    between atoms: _363  and  _364
REMARK  159  A    between atoms: _369  and  _371
REMARK  160  A    between atoms: _371  and  _372
REMARK  161  A    between atoms: _371  and  _374
REMARK  162  A    between atoms: _374  and  _375
REMARK  163  A    between atoms: _378  and  _380
REMARK  164  A    between atoms: _380  and  _381
REMARK  165  A    between atoms: _380  and  _383
REMARK  166  A    between atoms: _386  and  _388
REMARK  167  A    between atoms: _388  and  _389
REMARK  168  A    between atoms: _388  and  _391
REMARK  169  A    between atoms: _391  and  _392
REMARK  170  A    between atoms: _394  and  _396
REMARK  171  A    between atoms: _396  and  _397
REMARK  172  A    between atoms: _396  and  _399
REMARK  173  A    between atoms: _399  and  _400
REMARK  174  A    between atoms: _410  and  _412
REMARK  175  A    between atoms: _412  and  _413
REMARK  176  A    between atoms: _415  and  _417
REMARK  177  A    between atoms: _417  and  _418
REMARK  178  A    between atoms: _417  and  _420
REMARK  179  A    between atoms: _420  and  _421
REMARK  180  A    between atoms: _421  and  _422
REMARK  181  A    between atoms: _425  and  _427
REMARK  182  A    between atoms: _427  and  _428
REMARK  183  A    between atoms: _430  and  _432
REMARK  184  A    between atoms: _432  and  _433
REMARK  185  A    between atoms: _432  and  _435
REMARK  186  A    between atoms: _435  and  _436
REMARK  187  A    between atoms: _437  and  _439
REMARK  188  A    between atoms: _439  and  _440
REMARK  189  A    between atoms: _443  and  _445
REMARK  190  A    between atoms: _445  and  _446
REMARK  191  A    between atoms: _445  and  _448
REMARK  192  A    between atoms: _448  and  _449
REMARK  193  A    between atoms: _449  and  _450
REMARK  194  A    between atoms: _450  and  _451
REMARK  195  A    between atoms: _460  and  _462
REMARK  196  A    between atoms: _462  and  _463
REMARK  197  A    between atoms: _462  and  _465
REMARK  198  A    between atoms: _465  and  _466
REMARK  199  A    between atoms: _466  and  _467
REMARK  200  A    between atoms: _467  and  _468
REMARK  201  A    between atoms: _468  and  _469
REMARK  202  A    between atoms: _473  and  _475
REMARK  203  A    between atoms: _475  and  _476
REMARK  204  A    between atoms: _475  and  _478
REMARK  205  A    between atoms: _478  and  _479
REMARK  206  A    between atoms: _484  and  _485
REMARK  207  A    between atoms: _487  and  _489
REMARK  208  A    between atoms: _489  and  _490
REMARK  209  A    between atoms: _492  and  _494
REMARK  210  A    between atoms: _494  and  _495
REMARK  211  A    between atoms: _494  and  _497
REMARK  212  A    between atoms: _497  and  _498
REMARK  213  A    between atoms: _501  and  _503
REMARK  214  A    between atoms: _503  and  _504
REMARK  215  A    between atoms: _503  and  _506
REMARK  216  A    between atoms: _506  and  _507
REMARK  217  A    between atoms: _512  and  _513
REMARK  218  A    between atoms: _515  and  _517
REMARK  219  A    between atoms: _517  and  _518
REMARK  220  A    between atoms: _517  and  _520
REMARK  221  A    between atoms: _520  and  _521
REMARK                            x       y       z     vdW  Elec       q    Type
REMARK                         _______ _______ _______ _____ _____    ______ ____
ROOT
ATOM      1  CB  HIS A   1       2.125   8.263  16.625  0.00  0.00    +0.072 C 
ENDROOT
BRANCH   1   2
ATOM      2  CG  HIS A   1       2.209   8.606  18.079  0.00  0.00    +0.082 A 
ATOM      3  ND1 HIS A   1       2.341   7.649  19.070  0.00  0.00    -0.227 NA
ATOM      4  CE1 HIS A   1       2.354   8.243  20.248  0.00  0.00    +0.199 A 
ATOM      5  NE2 HIS A   1       2.220   9.548  20.061  0.00  0.00    -0.221 NA
ATOM      6  CD2 HIS A   1       2.110   9.798  18.714  0.00  0.00    +0.115 A 
ENDBRANCH   1   2
BRANCH   1   7
ATOM      7  CA  HIS A   1       3.433   8.463  15.844  0.00  0.00    +0.139 C 
BRANCH   7   8
ATOM      8  N   HIS A   1       4.303   7.281  15.895  0.00  0.00    -0.239 NA
ATOM      9  H   HIS A   1       4.072   6.499  16.540  0.00  0.00    +0.142 HD
ENDBRANCH   7   8
BRANCH   7  10
ATOM     10  C   HIS A   1       4.132   9.762  16.253  0.00  0.00    +0.224 C 
ATOM     11  O   HIS A   1       3.706  10.826  15.842  0.00  0.00    -0.287 OA
ENDBRANCH   7  10
ENDBRANCH   1   7
TORSDOF 4
REMARK  Name = ../refined-set-2016/2xc4/2xc4_pocket.pdb
REMARK  221 active torsions:
REMARK  status: ('A' for Active; 'I' for Inactive)
REMARK    1  A    between atoms: _1  and  _5
REMARK    2  A    between atoms: _5  and  _6
REMARK    3  A    between atoms: _5  and  _8
REMARK    4  A    between atoms: _8  and  _9
REMARK    5  A    between atoms: _12  and  _14
REMARK    6  A    between atoms: _14  and  _15
REMARK    7  A    between atoms: _14  and  _17
REMARK    8  A    between atoms: _20  and  _22
REMARK    9  A    between atoms: _22  and  _23
REMARK   10  A    between atoms: _22  and  _25
REMARK   11  A    between atoms: _25  and  _26
REMARK   12  A    between atoms: _31  and  _33
REMARK   13  A    between atoms: _33  and  _34
REMARK   14  A    between atoms: _33  and  _36
REMARK   15  A    between atoms: _36  and  _37
REMARK   16  A    between atoms: _37  and  _38
REMARK   17  A    between atoms: _43  and  _45
REMARK   18  A    between atoms: _45  and  _46
REMARK   19  A    between atoms: _45  and  _48
REMARK   20  A    between atoms: _48  and  _49
REMARK   21  A    between atoms: _52  and  _54
REMARK   22  A    between atoms: _54  and  _55
REMARK   23  A    between atoms: _54  and  _57
REMARK   24  A    between atoms: _57  and  _58
REMARK   25  A    between atoms: _58  and  _59
REMARK   26  A    between atoms: _59  and  _60
REMARK   27  A    between atoms: _60  and  _61
REMARK   28  A    between atoms: _65  and  _67
REMARK   29  A    between atoms: _67  and  _68
REMARK   30  A    between atoms: _67  and  _70
REMARK   31  A    between atoms: _70  and  _71
REMARK   32  A    between atoms: _71  and  _72
REMARK   33  A    between atoms: _75  and  _77
REMARK   34  A    between atoms: _77  and  _78
REMARK   35  A    between atoms: _77  and  _80
REMARK   36  A    between atoms: _80  and  _81
REMARK   37  A    between atoms: _84  and  _86
REMARK   38  A    between atoms: _86  and  _87
REMARK   39  A    between atoms: _86  and  _89
REMARK   40  A    between atoms: _89  and  _90
REMARK   41  A    between atoms: _95  and  _96
REMARK   42  A    between atoms: _98  and  _100
REMARK   43  A    between atoms: _100  and  _101
REMARK   44  A    between atoms: _100  and  _103
REMARK   45  A    between atoms: _103  and  _104
REMARK   46  A    between atoms: _107  and  _109
REMARK   47  A    between atoms: _109  and  _110
REMARK   48  A    between atoms: _109  and  _112
REMARK   49  A    between atoms: _112  and  _113
REMARK   50  A    between atoms: _116  and  _118
REMARK   51  A    between atoms: _118  and  _119
REMARK   52  A    between atoms: _118  and  _121
REMARK   53  A    between atoms: _124  and  _126
REMARK   54  A    between atoms: _126  and  _127
REMARK   55  A    between atoms: _126  and  _129
REMARK   56  A    between atoms: _129  and  _130
REMARK   57  A    between atoms: _130  and  _131
REMARK   58  A    between atoms: _131  and  _132
REMARK   59  A    between atoms: _141  and  _143
REMARK   60  A    between atoms: _143  and  _144
REMARK   61  A    between atoms: _143  and  _146
REMARK   62  A    between atoms: _146  and  _147
REMARK   63  A    between atoms: _152  and  _154
REMARK   64  A    between atoms: _154  and  _155
REMARK   65  A    between atoms: _154  and  _157
REMARK   66  A    between atoms: _157  and  _158
REMARK   67  A    between atoms: _158  and  _159
REMARK   68  A    between atoms: _162  and  _164
REMARK   69  A    between atoms: _164  and  _165
REMARK   70  A    between atoms: _164  and  _167
REMARK   71  A    between atoms: _167  and  _168
REMARK   72  A    between atoms: _168  and  _169
REMARK   73  A    between atoms: _169  and  _170
REMARK   74  A    between atoms: _170  and  _171
REMARK   75  A    between atoms: _175  and  _177
REMARK   76  A    between atoms: _177  and  _178
REMARK   77  A    between atoms: _180  and  _182
REMARK   78  A    between atoms: _182  and  _183
REMARK   79  A    between atoms: _182  and  _185
REMARK   80  A    between atoms: _188  and  _190
REMARK   81  A    between atoms: _190  and  _191
REMARK   82  A    between atoms: _190  and  _193
REMARK   83  A    between atoms: _193  and  _194
REMARK   84  A    between atoms: _196  and  _198
REMARK   85  A    between atoms: _198  and  _199
REMARK   86  A    between atoms: _198  and  _201
REMARK   87  A    between atoms: _201  and  _202
REMARK   88  A    between atoms: _204  and  _206
REMARK   89  A    between atoms: _206  and  _207
REMARK   90  A    between atoms: _206  and  _209
REMARK   91  A    between atoms: _209  and  _210
REMARK   92  A    between atoms: _216  and  _218
REMARK   93  A    between atoms: _218  and  _219
REMARK   94  A    between atoms: _218  and  _221
REMARK   95  A    between atoms: _221  and  _222
REMARK   96  A    between atoms: _225  and  _227
REMARK   97  A    between atoms: _227  and  _228
REMARK   98  A    between atoms: _227  and  _230
REMARK   99  A    between atoms: _230  and  _231
REMARK  100  A    between atoms: _234  and  _236
REMARK  101  A    between atoms: _236  and  _237
REMARK  102  A    between atoms: _236  and  _239
REMARK  103  A    between atoms: _239  and  _240
REMARK  104  A    between atoms: _243  and  _245
REMARK  105  A    between atoms: _245  and  _246
REMARK  106  A    between atoms: _245  and  _248
REMARK  107  A    between atoms: _248  and  _249
REMARK  108  A    between atoms: _249  and  _250
REMARK  109  A    between atoms: _252  and  _254
REMARK  110  A    between atoms: _254  and  _255
REMARK  111  A    between atoms: _254  and  _257
REMARK  112  A    between atoms: _257  and  _258
REMARK  113  A    between atoms: _264  and  _266
REMARK  114  A    between atoms: _266  and  _267
REMARK  115  A    between atoms: _266  and  _269
REMARK  116  A    between atoms: _271  and  _273
REMARK  117  A    between atoms: _273  and  _274
REMARK  118  A    between atoms: _277  and  _279
REMARK  119  A    between atoms: _279  and  _280
REMARK  120  A    between atoms: _282  and  _284
REMARK  121  A    between atoms: _284  and  _285
REMARK  122  A    between atoms: _284  and  _287
REMARK  123  A    between atoms: _287  and  _288
REMARK  124  A    between atoms: _288  and  _289
REMARK  125  A    between atoms: _292  and  _294
REMARK  126  A    between atoms: _294  and  _295
REMARK  127  A    between atoms: _294  and  _297
REMARK  128  A    between atoms: _297  and  _298
REMARK  129  A    between atoms: _301  and  _303
REMARK  130  A    between atoms: _303  and  _304
REMARK  131  A    between atoms: _307  and  _309
REMARK  132  A    between atoms: _309  and  _310
REMARK  133  A    between atoms: _309  and  _312
REMARK  134  A    between atoms: _312  and  _313
REMARK  135  A    between atoms: _313  and  _436
REMARK  136  A    between atoms: _314  and  _316
REMARK  137  A    between atoms: _316  and  _317
REMARK  138  A    between atoms: _316  and  _319
REMARK  139  A    between atoms: _319  and  _320
REMARK  140  A    between atoms: _320  and  _321
REMARK  141  A    between atoms: _326  and  _328
REMARK  142  A    between atoms: _328  and  _329
REMARK  143  A    between atoms: _331  and  _333
REMARK  144  A    between atoms: _333  and  _334
REMARK  145  A    between atoms: _333  and  _336
REMARK  146  A    between atoms: _336  and  _337
REMARK  147  A    between atoms: _340  and  _342
REMARK  148  A    between atoms: _342  and  _343
REMARK  149  A    between atoms: _342  and  _345
REMARK  150  A    between atoms: _345  and  _346
REMARK  151  A    between atoms: _348  and  _350
REMARK  152  A    between atoms: _350  and  _351
REMARK  153  A    between atoms: _353  and  _355
REMARK  154  A    between atoms: _355  and  _356
REMARK  155  A    between atoms: _358  and  _360
REMARK  156  A    between atoms: _360  and  _361
REMARK  157  A    between atoms: _360  and  _363
REMARK  158  A    between atoms: _363  and  _364
REMARK  159  A    between atoms: _369  and  _371
REMARK  160  A    between atoms: _371  and  _372
REMARK  161  A    between atoms: _371  and  _374
REMARK  162  A    between atoms: _374  and  _375
REMARK  163  A    between atoms: _378  and  _380
REMARK  164  A    between atoms: _380  and  _381
REMARK  165  A    between atoms: _380  and  _383
REMARK  166  A    between atoms: _386  and  _388
REMARK  167  A    between atoms: _388  and  _389
REMARK  168  A    between atoms: _388  and  _391
REMARK  169  A    between atoms: _391  and  _392
REMARK  170  A    between atoms: _394  and  _396
REMARK  171  A    between atoms: _396  and  _397
REMARK  172  A    between atoms: _396  and  _399
REMARK  173  A    between atoms: _399  and  _400
REMARK  174  A    between atoms: _410  and  _412
REMARK  175  A    between atoms: _412  and  _413
REMARK  176  A    between atoms: _415  and  _417
REMARK  177  A    between atoms: _417  and  _418
REMARK  178  A    between atoms: _417  and  _420
REMARK  179  A    between atoms: _420  and  _421
REMARK  180  A    between atoms: _421  and  _422
REMARK  181  A    between atoms: _425  and  _427
REMARK  182  A    between atoms: _427  and  _428
REMARK  183  A    between atoms: _430  and  _432
REMARK  184  A    between atoms: _432  and  _433
REMARK  185  A    between atoms: _432  and  _435
REMARK  186  A    between atoms: _435  and  _436
REMARK  187  A    between atoms: _437  and  _439
REMARK  188  A    between atoms: _439  and  _440
REMARK  189  A    between atoms: _443  and  _445
REMARK  190  A    between atoms: _445  and  _446
REMARK  191  A    between atoms: _445  and  _448
REMARK  192  A    between atoms: _448  and  _449
REMARK  193  A    between atoms: _449  and  _450
REMARK  194  A    between atoms: _450  and  _451
REMARK  195  A    between atoms: _460  and  _462
REMARK  196  A    between atoms: _462  and  _463
REMARK  197  A    between atoms: _462  and  _465
REMARK  198  A    between atoms: _465  and  _466
REMARK  199  A    between atoms: _466  and  _467
REMARK  200  A    between atoms: _467  and  _468
REMARK  201  A    between atoms: _468  and  _469
REMARK  202  A    between atoms: _473  and  _475
REMARK  203  A    between atoms: _475  and  _476
REMARK  204  A    between atoms: _475  and  _478
REMARK  205  A    between atoms: _478  and  _479
REMARK  206  A    between atoms: _484  and  _485
REMARK  207  A    between atoms: _487  and  _489
REMARK  208  A    between atoms: _489  and  _490
REMARK  209  A    between atoms: _492  and  _494
REMARK  210  A    between atoms: _494  and  _495
REMARK  211  A    between atoms: _494  and  _497
REMARK  212  A    between atoms: _497  and  _498
REMARK  213  A    between atoms: _501  and  _503
REMARK  214  A    between atoms: _503  and  _504
REMARK  215  A    between atoms: _503  and  _506
REMARK  216  A    between atoms: _506  and  _507
REMARK  217  A    between atoms: _512  and  _513
REMARK  218  A    between atoms: _515  and  _517
REMARK  219  A    between atoms: _517  and  _518
REMARK  220  A    between atoms: _517  and  _520
REMARK  221  A    between atoms: _520  and  _521
REMARK                            x       y       z     vdW  Elec       q    Type
REMARK                         _______ _______ _______ _____ _____    ______ ____
ROOT
ATOM      1  CB  GLN A   1       4.082  15.054  16.994  0.00  0.00    +0.035 C 
ENDROOT
BRANCH   1   2
ATOM      2  CA  GLN A   1       4.493  15.620  15.615  0.00  0.00    +0.134 C 
BRANCH   2   3
ATOM      3  N   GLN A   1       4.865  14.537  14.696  0.00  0.00    -0.239 NA
ATOM      4  H   GLN A   1       5.622  13.881  14.974  0.00  0.00    +0.142 HD
ENDBRANCH   2   3
BRANCH   2   5
ATOM      5  C   GLN A   1       5.558  16.723  15.707  0.00  0.00    +0.224 C 
ATOM      6  O   GLN A   1       5.370  17.727  16.397  0.00  0.00    -0.287 OA
ENDBRANCH   2   5
ENDBRANCH   1   2
BRANCH   1   7
ATOM      7  CG  GLN A   1       2.960  14.025  16.848  0.00  0.00    +0.087 C 
BRANCH   7   8
ATOM      8  CD  GLN A   1       2.318  13.571  18.135  0.00  0.00    +0.219 C 
ATOM      9  NE2 GLN A   1       3.043  13.662  19.247  0.00  0.00    -0.329 N 
ATOM     10 HE21 GLN A   1       2.647  13.342  20.154  0.00  0.00    +0.145 HD
ATOM     11 HE22 GLN A   1       4.006  14.053  19.209  0.00  0.00    +0.145 HD
ATOM     12  OE1 GLN A   1       1.171  13.116  18.119  0.00  0.00    -0.275 OA
ENDBRANCH   7   8
ENDBRANCH   1   7
TORSDOF 5
REMARK  Name = ../refined-set-2016/2xc4/2xc4_pocket.pdb
REMARK  221 active torsions:
REMARK  status: ('A' for Active; 'I' for Inactive)
REMARK    1  A    between atoms: _1  and  _5
REMARK    2  A    between atoms: _5  and  _6
REMARK    3  A    between atoms: _5  and  _8
REMARK    4  A    between atoms: _8  and  _9
REMARK    5  A    between atoms: _12  and  _14
REMARK    6  A    between atoms: _14  and  _15
REMARK    7  A    between atoms: _14  and  _17
REMARK    8  A    between atoms: _20  and  _22
REMARK    9  A    between atoms: _22  and  _23
REMARK   10  A    between atoms: _22  and  _25
REMARK   11  A    between atoms: _25  and  _26
REMARK   12  A    between atoms: _31  and  _33
REMARK   13  A    between atoms: _33  and  _34
REMARK   14  A    between atoms: _33  and  _36
REMARK   15  A    between atoms: _36  and  _37
REMARK   16  A    between atoms: _37  and  _38
REMARK   17  A    between atoms: _43  and  _45
REMARK   18  A    between atoms: _45  and  _46
REMARK   19  A    between atoms: _45  and  _48
REMARK   20  A    between atoms: _48  and  _49
REMARK   21  A    between atoms: _52  and  _54
REMARK   22  A    between atoms: _54  and  _55
REMARK   23  A    between atoms: _54  and  _57
REMARK   24  A    between atoms: _57  and  _58
REMARK   25  A    between atoms: _58  and  _59
REMARK   26  A    between atoms: _59  and  _60
REMARK   27  A    between atoms: _60  and  _61
REMARK   28  A    between atoms: _65  and  _67
REMARK   29  A    between atoms: _67  and  _68
REMARK   30  A    between atoms: _67  and  _70
REMARK   31  A    between atoms: _70  and  _71
REMARK   32  A    between atoms: _71  and  _72
REMARK   33  A    between atoms: _75  and  _77
REMARK   34  A    between atoms: _77  and  _78
REMARK   35  A    between atoms: _77  and  _80
REMARK   36  A    between atoms: _80  and  _81
REMARK   37  A    between atoms: _84  and  _86
REMARK   38  A    between atoms: _86  and  _87
REMARK   39  A    between atoms: _86  and  _89
REMARK   40  A    between atoms: _89  and  _90
REMARK   41  A    between atoms: _95  and  _96
REMARK   42  A    between atoms: _98  and  _100
REMARK   43  A    between atoms: _100  and  _101
REMARK   44  A    between atoms: _100  and  _103
REMARK   45  A    between atoms: _103  and  _104
REMARK   46  A    between atoms: _107  and  _109
REMARK   47  A    between atoms: _109  and  _110
REMARK   48  A    between atoms: _109  and  _112
REMARK   49  A    between atoms: _112  and  _113
REMARK   50  A    between atoms: _116  and  _118
REMARK   51  A    between atoms: _118  and  _119
REMARK   52  A    between atoms: _118  and  _121
REMARK   53  A    between atoms: _124  and  _126
REMARK   54  A    between atoms: _126  and  _127
REMARK   55  A    between atoms: _126  and  _129
REMARK   56  A    between atoms: _129  and  _130
REMARK   57  A    between atoms: _130  and  _131
REMARK   58  A    between atoms: _131  and  _132
REMARK   59  A    between atoms: _141  and  _143
REMARK   60  A    between atoms: _143  and  _144
REMARK   61  A    between atoms: _143  and  _146
REMARK   62  A    between atoms: _146  and  _147
REMARK   63  A    between atoms: _152  and  _154
REMARK   64  A    between atoms: _154  and  _155
REMARK   65  A    between atoms: _154  and  _157
REMARK   66  A    between atoms: _157  and  _158
REMARK   67  A    between atoms: _158  and  _159
REMARK   68  A    between atoms: _162  and  _164
REMARK   69  A    between atoms: _164  and  _165
REMARK   70  A    between atoms: _164  and  _167
REMARK   71  A    between atoms: _167  and  _168
REMARK   72  A    between atoms: _168  and  _169
REMARK   73  A    between atoms: _169  and  _170
REMARK   74  A    between atoms: _170  and  _171
REMARK   75  A    between atoms: _175  and  _177
REMARK   76  A    between atoms: _177  and  _178
REMARK   77  A    between atoms: _180  and  _182
REMARK   78  A    between atoms: _182  and  _183
REMARK   79  A    between atoms: _182  and  _185
REMARK   80  A    between atoms: _188  and  _190
REMARK   81  A    between atoms: _190  and  _191
REMARK   82  A    between atoms: _190  and  _193
REMARK   83  A    between atoms: _193  and  _194
REMARK   84  A    between atoms: _196  and  _198
REMARK   85  A    between atoms: _198  and  _199
REMARK   86  A    between atoms: _198  and  _201
REMARK   87  A    between atoms: _201  and  _202
REMARK   88  A    between atoms: _204  and  _206
REMARK   89  A    between atoms: _206  and  _207
REMARK   90  A    between atoms: _206  and  _209
REMARK   91  A    between atoms: _209  and  _210
REMARK   92  A    between atoms: _216  and  _218
REMARK   93  A    between atoms: _218  and  _219
REMARK   94  A    between atoms: _218  and  _221
REMARK   95  A    between atoms: _221  and  _222
REMARK   96  A    between atoms: _225  and  _227
REMARK   97  A    between atoms: _227  and  _228
REMARK   98  A    between atoms: _227  and  _230
REMARK   99  A    between atoms: _230  and  _231
REMARK  100  A    between atoms: _234  and  _236
REMARK  101  A    between atoms: _236  and  _237
REMARK  102  A    between atoms: _236  and  _239
REMARK  103  A    between atoms: _239  and  _240
REMARK  104  A    between atoms: _243  and  _245
REMARK  105  A    between atoms: _245  and  _246
REMARK  106  A    between atoms: _245  and  _248
REMARK  107  A    between atoms: _248  and  _249
REMARK  108  A    between atoms: _249  and  _250
REMARK  109  A    between atoms: _252  and  _254
REMARK  110  A    between atoms: _254  and  _255
REMARK  111  A    between atoms: _254  and  _257
REMARK  112  A    between atoms: _257  and  _258
REMARK  113  A    between atoms: _264  and  _266
REMARK  114  A    between atoms: _266  and  _267
REMARK  115  A    between atoms: _266  and  _269
REMARK  116  A    between atoms: _271  and  _273
REMARK  117  A    between atoms: _273  and  _274
REMARK  118  A    between atoms: _277  and  _279
REMARK  119  A    between atoms: _279  and  _280
REMARK  120  A    between atoms: _282  and  _284
REMARK  121  A    between atoms: _284  and  _285
REMARK  122  A    between atoms: _284  and  _287
REMARK  123  A    between atoms: _287  and  _288
REMARK  124  A    between atoms: _288  and  _289
REMARK  125  A    between atoms: _292  and  _294
REMARK  126  A    between atoms: _294  and  _295
REMARK  127  A    between atoms: _294  and  _297
REMARK  128  A    between atoms: _297  and  _298
REMARK  129  A    between atoms: _301  and  _303
REMARK  130  A    between atoms: _303  and  _304
REMARK  131  A    between atoms: _307  and  _309
REMARK  132  A    between atoms: _309  and  _310
REMARK  133  A    between atoms: _309  and  _312
REMARK  134  A    between atoms: _312  and  _313
REMARK  135  A    between atoms: _313  and  _436
REMARK  136  A    between atoms: _314  and  _316
REMARK  137  A    between atoms: _316  and  _317
REMARK  138  A    between atoms: _316  and  _319
REMARK  139  A    between atoms: _319  and  _320
REMARK  140  A    between atoms: _320  and  _321
REMARK  141  A    between atoms: _326  and  _328
REMARK  142  A    between atoms: _328  and  _329
REMARK  143  A    between atoms: _331  and  _333
REMARK  144  A    between atoms: _333  and  _334
REMARK  145  A    between atoms: _333  and  _336
REMARK  146  A    between atoms: _336  and  _337
REMARK  147  A    between atoms: _340  and  _342
REMARK  148  A    between atoms: _342  and  _343
REMARK  149  A    between atoms: _342  and  _345
REMARK  150  A    between atoms: _345  and  _346
REMARK  151  A    between atoms: _348  and  _350
REMARK  152  A    between atoms: _350  and  _351
REMARK  153  A    between atoms: _353  and  _355
REMARK  154  A    between atoms: _355  and  _356
REMARK  155  A    between atoms: _358  and  _360
REMARK  156  A    between atoms: _360  and  _361
REMARK  157  A    between atoms: _360  and  _363
REMARK  158  A    between atoms: _363  and  _364
REMARK  159  A    between atoms: _369  and  _371
REMARK  160  A    between atoms: _371  and  _372
REMARK  161  A    between atoms: _371  and  _374
REMARK  162  A    between atoms: _374  and  _375
REMARK  163  A    between atoms: _378  and  _380
REMARK  164  A    between atoms: _380  and  _381
REMARK  165  A    between atoms: _380  and  _383
REMARK  166  A    between atoms: _386  and  _388
REMARK  167  A    between atoms: _388  and  _389
REMARK  168  A    between atoms: _388  and  _391
REMARK  169  A    between atoms: _391  and  _392
REMARK  170  A    between atoms: _394  and  _396
REMARK  171  A    between atoms: _396  and  _397
REMARK  172  A    between atoms: _396  and  _399
REMARK  173  A    between atoms: _399  and  _400
REMARK  174  A    between atoms: _410  and  _412
REMARK  175  A    between atoms: _412  and  _413
REMARK  176  A    between atoms: _415  and  _417
REMARK  177  A    between atoms: _417  and  _418
REMARK  178  A    between atoms: _417  and  _420
REMARK  179  A    between atoms: _420  and  _421
REMARK  180  A    between atoms: _421  and  _422
REMARK  181  A    between atoms: _425  and  _427
REMARK  182  A    between atoms: _427  and  _428
REMARK  183  A    between atoms: _430  and  _432
REMARK  184  A    between atoms: _432  and  _433
REMARK  185  A    between atoms: _432  and  _435
REMARK  186  A    between atoms: _435  and  _436
REMARK  187  A    between atoms: _437  and  _439
REMARK  188  A    between atoms: _439  and  _440
REMARK  189  A    between atoms: _443  and  _445
REMARK  190  A    between atoms: _445  and  _446
REMARK  191  A    between atoms: _445  and  _448
REMARK  192  A    between atoms: _448  and  _449
REMARK  193  A    between atoms: _449  and  _450
REMARK  194  A    between atoms: _450  and  _451
REMARK  195  A    between atoms: _460  and  _462
REMARK  196  A    between atoms: _462  and  _463
REMARK  197  A    between atoms: _462  and  _465
REMARK  198  A    between atoms: _465  and  _466
REMARK  199  A    between atoms: _466  and  _467
REMARK  200  A    between atoms: _467  and  _468
REMARK  201  A    between atoms: _468  and  _469
REMARK  202  A    between atoms: _473  and  _475
REMARK  203  A    between atoms: _475  and  _476
REMARK  204  A    between atoms: _475  and  _478
REMARK  205  A    between atoms: _478  and  _479
REMARK  206  A    between atoms: _484  and  _485
REMARK  207  A    between atoms: _487  and  _489
REMARK  208  A    between atoms: _489  and  _490
REMARK  209  A    between atoms: _492  and  _494
REMARK  210  A    between atoms: _494  and  _495
REMARK  211  A    between atoms: _494  and  _497
REMARK  212  A    between atoms: _497  and  _498
REMARK  213  A    between atoms: _501  and  _503
REMARK  214  A    between atoms: _503  and  _504
REMARK  215  A    between atoms: _503  and  _506
REMARK  216  A    between atoms: _506  and  _507
REMARK  217  A    between atoms: _512  and  _513
REMARK  218  A    between atoms: _515  and  _517
REMARK  219  A    between atoms: _517  and  _518
REMARK  220  A    between atoms: _517  and  _520
REMARK  221  A    between atoms: _520  and  _521
REMARK                            x       y       z     vdW  Elec       q    Type
REMARK                         _______ _______ _______ _____ _____    ______ ____
ROOT
ATOM      1  C   GLU A   3      -5.996   4.511  12.310  0.00  0.00    +0.241 C 
ATOM      2  O   GLU A   3      -7.060   4.570  12.935  0.00  0.00    -0.273 OA
ATOM      3  N   THR A   4      -5.023   3.637  12.592  0.00  0.00    -0.295 N 
ATOM      4  H   THR A   4      -4.102   3.747  12.121  0.00  0.00    +0.150 HD
ENDROOT
BRANCH   3   5
ATOM      5  CA  THR A   4      -5.200   2.539  13.530  0.00  0.00    +0.176 C 
BRANCH   5   6
ATOM      6  C   THR A   4      -4.349   2.717  14.787  0.00  0.00    +0.243 C 
ATOM      7  O   THR A   4      -4.662   2.138  15.828  0.00  0.00    -0.273 OA
ATOM      8  N   TYR A   5      -3.280   3.515  14.675  0.00  0.00    -0.297 N 
ATOM      9  H   TYR A   5      -3.186   4.117  13.832  0.00  0.00    +0.150 HD
BRANCH   8  10
ATOM     10  CA  TYR A   5      -2.219   3.566  15.725  0.00  0.00    +0.153 C 
BRANCH  10  11
ATOM     11  C   TYR A   5      -1.539   2.229  15.969  0.00  0.00    +0.241 C 
ATOM     12  O   TYR A   5      -0.787   2.027  16.952  0.00  0.00    -0.273 OA
ATOM     13  N   ASP A   6      -1.785   1.301  15.060  0.00  0.00    -0.298 N 
ATOM     14  H   ASP A   6      -2.437   1.513  14.278  0.00  0.00    +0.150 HD
BRANCH  13  15
ATOM     15  CA  ASP A   6      -1.161  -0.010  15.133  0.00  0.00    +0.148 C 
BRANCH  15  16
ATOM     16  C   ASP A   6       0.313   0.051  14.739  0.00  0.00    +0.227 C 
ATOM     17  O   ASP A   6       0.722   0.948  14.003  0.00  0.00    -0.286 OA
ENDBRANCH  15  16
BRANCH  15  18
ATOM     18  CB  ASP A   6      -1.923  -1.002  14.257  0.00  0.00    +0.142 C 
BRANCH  18  19
ATOM     19  CG  ASP A   6      -1.724  -2.466  14.693  0.00  0.00    +0.367 C 
ATOM     20  OD2 ASP A   6      -1.074  -2.779  15.727  0.00  0.00    -0.246 OA
ATOM     21  OD1 ASP A   6      -2.260  -3.344  13.993  0.00  0.00    -0.246 OA
ENDBRANCH  18  19
ENDBRANCH  15  18
ENDBRANCH  13  15
ENDBRANCH  10  11
BRANCH  10  22
ATOM     22  CB  TYR A   5      -2.730   4.225  17.014  0.00  0.00    +0.055 C 
BRANCH  22  23
ATOM     23  CG  TYR A   5      -2.403   5.691  17.030  0.00  0.00    -0.020 A 
ATOM     24  CD2 TYR A   5      -1.559   6.230  18.003  0.00  0.00    -0.001 A 
ATOM     25  CE2 TYR A   5      -1.241   7.554  18.028  0.00  0.00    +0.036 A 
ATOM     26  CZ  TYR A   5      -1.751   8.405  17.055  0.00  0.00    +0.134 A 
ATOM     27  CE1 TYR A   5      -2.583   7.913  16.062  0.00  0.00    +0.036 A 
ATOM     28  CD1 TYR A   5      -2.917   6.552  16.056  0.00  0.00    -0.001 A 
BRANCH  26  29
ATOM     29  OH  TYR A   5      -1.400   9.727  17.093  0.00  0.00    -0.506 OA
ATOM     30  HH  TYR A   5      -1.694  10.121  17.953  0.00  0.00    +0.292 HD
ENDBRANCH  26  29
ENDBRANCH  22  23
ENDBRANCH  10  22
ENDBRANCH   8  10
ENDBRANCH   5   6
BRANCH   5  31
ATOM     31  CB  THR A   4      -4.738   1.237  12.900  0.00  0.00    +0.137 C 
ATOM     32  CG2 THR A   4      -5.585   0.921  11.654  0.00  0.00    +0.034 C 
BRANCH  31  33
ATOM     33  OG1 THR A   4      -3.373   1.390  12.504  0.00  0.00    -0.382 OA
ATOM     34  HG1 THR A   4      -3.054   0.549  12.090  0.00  0.00    +0.210 HD
ENDBRANCH  31  33
ENDBRANCH   5  31
ENDBRANCH   3   5
BRANCH   1  35
ATOM     35  CA  GLU A   3      -5.722   5.503  11.186  0.00  0.00    +0.149 C 
BRANCH  35  38
ATOM     36  C   LYS A   2      -3.851   6.665  12.237  0.00  0.00    +0.241 C 
ATOM     37  O   LYS A   2      -4.482   6.863  13.275  0.00  0.00    -0.273 OA
ATOM     38  N   GLU A   3      -4.347   5.991  11.205  0.00  0.00    -0.297 N 
ATOM     39  H   GLU A   3      -3.736   5.805  10.384  0.00  0.00    +0.150 HD
BRANCH  36  40
ATOM     40  CA  LYS A   2      -2.411   7.154  12.076  0.00  0.00    +0.149 C 
BRANCH  40  43
ATOM     41  C   THR A   1      -1.411   5.013  11.402  0.00  0.00    +0.241 C 
ATOM     42  O   THR A   1      -1.776   4.444  12.440  0.00  0.00    -0.274 OA
ATOM     43  N   LYS A   2      -1.662   6.296  11.139  0.00  0.00    -0.297 N 
ATOM     44  H   LYS A   2      -1.319   6.704  10.246  0.00  0.00    +0.150 HD
BRANCH  41  45
ATOM     45  CA  THR A   1      -0.662   4.238  10.323  0.00  0.00    +0.172 C 
BRANCH  45  46
ATOM     46  CB  THR A   1      -1.677   3.595   9.340  0.00  0.00    +0.135 C 
ATOM     47  CG2 THR A   1      -2.183   2.261   9.849  0.00  0.00    +0.034 C 
BRANCH  46  48
ATOM     48  OG1 THR A   1      -2.803   4.453   9.202  0.00  0.00    -0.383 OA
ATOM     49  HG1 THR A   1      -2.507   5.329   8.849  0.00  0.00    +0.210 HD
ENDBRANCH  46  48
ENDBRANCH  45  46
BRANCH  45  50
ATOM     50  N   THR A   1       0.208   3.249  10.934  0.00  0.00    -0.236 NA
ATOM     51  H   THR A   1      -0.110   2.763  11.797  0.00  0.00    +0.142 HD
ENDBRANCH  45  50
ENDBRANCH  41  45
ENDBRANCH  40  43
BRANCH  40  52
ATOM     52  CB  LYS A   2      -2.384   8.624  11.640  0.00  0.00    +0.029 C 
BRANCH  52  53
ATOM     53  CG  LYS A   2      -1.006   9.277  11.717  0.00  0.00    +0.000 C 
BRANCH  53  54
ATOM     54  CD  LYS A   2      -1.076  10.803  11.866  0.00  0.00    -0.024 C 
BRANCH  54  55
ATOM     55  CE  LYS A   2      -1.101  11.521  10.512  0.00  0.00    -0.086 C 
BRANCH  55  56
ATOM     56  NZ  LYS A   2      -0.720  12.967  10.638  0.00  0.00    +0.380 N 
ATOM     57  HZ1 LYS A   2      -1.389  13.446  11.274  0.00  0.00    -0.089 HD
ATOM     58  HZ2 LYS A   2       0.242  13.038  11.027  0.00  0.00    -0.089 HD
ATOM     59  HZ3 LYS A   2      -0.750  13.415   9.700  0.00  0.00    -0.089 HD
ENDBRANCH  55  56
ENDBRANCH  54  55
ENDBRANCH  53  54
ENDBRANCH  52  53
ENDBRANCH  40  52
ENDBRANCH  36  40
ENDBRANCH  35  38
BRANCH  35  60
ATOM     60  CB  GLU A   3      -6.060   4.887   9.814  0.00  0.00    +0.041 C 
BRANCH  60  61
ATOM     61  CG  GLU A   3      -6.224   5.908   8.670  0.00  0.00    +0.116 C 
BRANCH  61  62
ATOM     62  CD  GLU A   3      -5.007   6.816   8.453  0.00  0.00    +0.365 C 
ATOM     63  OE2 GLU A   3      -5.148   8.050   8.603  0.00  0.00    -0.246 OA
ATOM     64  OE1 GLU A   3      -3.916   6.303   8.127  0.00  0.00    -0.246 OA
ENDBRANCH  61  62
ENDBRANCH  60  61
ENDBRANCH  35  60
ENDBRANCH   1  35
TORSDOF 29
REMARK  Name = ../refined-set-2016/2xc4/2xc4_pocket.pdb
REMARK  221 active torsions:
REMARK  status: ('A' for Active; 'I' for Inactive)
REMARK    1  A    between atoms: _1  and  _5
REMARK    2  A    between atoms: _5  and  _6
REMARK    3  A    between atoms: _5  and  _8
REMARK    4  A    between atoms: _8  and  _9
REMARK    5  A    between atoms: _12  and  _14
REMARK    6  A    between atoms: _14  and  _15
REMARK    7  A    between atoms: _14  and  _17
REMARK    8  A    between atoms: _20  and  _22
REMARK    9  A    between atoms: _22  and  _23
REMARK   10  A    between atoms: _22  and  _25
REMARK   11  A    between atoms: _25  and  _26
REMARK   12  A    between atoms: _31  and  _33
REMARK   13  A    between atoms: _33  and  _34
REMARK   14  A    between atoms: _33  and  _36
REMARK   15  A    between atoms: _36  and  _37
REMARK   16  A    between atoms: _37  and  _38
REMARK   17  A    between atoms: _43  and  _45
REMARK   18  A    between atoms: _45  and  _46
REMARK   19  A    between atoms: _45  and  _48
REMARK   20  A    between atoms: _48  and  _49
REMARK   21  A    between atoms: _52  and  _54
REMARK   22  A    between atoms: _54  and  _55
REMARK   23  A    between atoms: _54  and  _57
REMARK   24  A    between atoms: _57  and  _58
REMARK   25  A    between atoms: _58  and  _59
REMARK   26  A    between atoms: _59  and  _60
REMARK   27  A    between atoms: _60  and  _61
REMARK   28  A    between atoms: _65  and  _67
REMARK   29  A    between atoms: _67  and  _68
REMARK   30  A    between atoms: _67  and  _70
REMARK   31  A    between atoms: _70  and  _71
REMARK   32  A    between atoms: _71  and  _72
REMARK   33  A    between atoms: _75  and  _77
REMARK   34  A    between atoms: _77  and  _78
REMARK   35  A    between atoms: _77  and  _80
REMARK   36  A    between atoms: _80  and  _81
REMARK   37  A    between atoms: _84  and  _86
REMARK   38  A    between atoms: _86  and  _87
REMARK   39  A    between atoms: _86  and  _89
REMARK   40  A    between atoms: _89  and  _90
REMARK   41  A    between atoms: _95  and  _96
REMARK   42  A    between atoms: _98  and  _100
REMARK   43  A    between atoms: _100  and  _101
REMARK   44  A    between atoms: _100  and  _103
REMARK   45  A    between atoms: _103  and  _104
REMARK   46  A    between atoms: _107  and  _109
REMARK   47  A    between atoms: _109  and  _110
REMARK   48  A    between atoms: _109  and  _112
REMARK   49  A    between atoms: _112  and  _113
REMARK   50  A    between atoms: _116  and  _118
REMARK   51  A    between atoms: _118  and  _119
REMARK   52  A    between atoms: _118  and  _121
REMARK   53  A    between atoms: _124  and  _126
REMARK   54  A    between atoms: _126  and  _127
REMARK   55  A    between atoms: _126  and  _129
REMARK   56  A    between atoms: _129  and  _130
REMARK   57  A    between atoms: _130  and  _131
REMARK   58  A    between atoms: _131  and  _132
REMARK   59  A    between atoms: _141  and  _143
REMARK   60  A    between atoms: _143  and  _144
REMARK   61  A    between atoms: _143  and  _146
REMARK   62  A    between atoms: _146  and  _147
REMARK   63  A    between atoms: _152  and  _154
REMARK   64  A    between atoms: _154  and  _155
REMARK   65  A    between atoms: _154  and  _157
REMARK   66  A    between atoms: _157  and  _158
REMARK   67  A    between atoms: _158  and  _159
REMARK   68  A    between atoms: _162  and  _164
REMARK   69  A    between atoms: _164  and  _165
REMARK   70  A    between atoms: _164  and  _167
REMARK   71  A    between atoms: _167  and  _168
REMARK   72  A    between atoms: _168  and  _169
REMARK   73  A    between atoms: _169  and  _170
REMARK   74  A    between atoms: _170  and  _171
REMARK   75  A    between atoms: _175  and  _177
REMARK   76  A    between atoms: _177  and  _178
REMARK   77  A    between atoms: _180  and  _182
REMARK   78  A    between atoms: _182  and  _183
REMARK   79  A    between atoms: _182  and  _185
REMARK   80  A    between atoms: _188  and  _190
REMARK   81  A    between atoms: _190  and  _191
REMARK   82  A    between atoms: _190  and  _193
REMARK   83  A    between atoms: _193  and  _194
REMARK   84  A    between atoms: _196  and  _198
REMARK   85  A    between atoms: _198  and  _199
REMARK   86  A    between atoms: _198  and  _201
REMARK   87  A    between atoms: _201  and  _202
REMARK   88  A    between atoms: _204  and  _206
REMARK   89  A    between atoms: _206  and  _207
REMARK   90  A    between atoms: _206  and  _209
REMARK   91  A    between atoms: _209  and  _210
REMARK   92  A    between atoms: _216  and  _218
REMARK   93  A    between atoms: _218  and  _219
REMARK   94  A    between atoms: _218  and  _221
REMARK   95  A    between atoms: _221  and  _222
REMARK   96  A    between atoms: _225  and  _227
REMARK   97  A    between atoms: _227  and  _228
REMARK   98  A    between atoms: _227  and  _230
REMARK   99  A    between atoms: _230  and  _231
REMARK  100  A    between atoms: _234  and  _236
REMARK  101  A    between atoms: _236  and  _237
REMARK  102  A    between atoms: _236  and  _239
REMARK  103  A    between atoms: _239  and  _240
REMARK  104  A    between atoms: _243  and  _245
REMARK  105  A    between atoms: _245  and  _246
REMARK  106  A    between atoms: _245  and  _248
REMARK  107  A    between atoms: _248  and  _249
REMARK  108  A    between atoms: _249  and  _250
REMARK  109  A    between atoms: _252  and  _254
REMARK  110  A    between atoms: _254  and  _255
REMARK  111  A    between atoms: _254  and  _257
REMARK  112  A    between atoms: _257  and  _258
REMARK  113  A    between atoms: _264  and  _266
REMARK  114  A    between atoms: _266  and  _267
REMARK  115  A    between atoms: _266  and  _269
REMARK  116  A    between atoms: _271  and  _273
REMARK  117  A    between atoms: _273  and  _274
REMARK  118  A    between atoms: _277  and  _279
REMARK  119  A    between atoms: _279  and  _280
REMARK  120  A    between atoms: _282  and  _284
REMARK  121  A    between atoms: _284  and  _285
REMARK  122  A    between atoms: _284  and  _287
REMARK  123  A    between atoms: _287  and  _288
REMARK  124  A    between atoms: _288  and  _289
REMARK  125  A    between atoms: _292  and  _294
REMARK  126  A    between atoms: _294  and  _295
REMARK  127  A    between atoms: _294  and  _297
REMARK  128  A    between atoms: _297  and  _298
REMARK  129  A    between atoms: _301  and  _303
REMARK  130  A    between atoms: _303  and  _304
REMARK  131  A    between atoms: _307  and  _309
REMARK  132  A    between atoms: _309  and  _310
REMARK  133  A    between atoms: _309  and  _312
REMARK  134  A    between atoms: _312  and  _313
REMARK  135  A    between atoms: _313  and  _436
REMARK  136  A    between atoms: _314  and  _316
REMARK  137  A    between atoms: _316  and  _317
REMARK  138  A    between atoms: _316  and  _319
REMARK  139  A    between atoms: _319  and  _320
REMARK  140  A    between atoms: _320  and  _321
REMARK  141  A    between atoms: _326  and  _328
REMARK  142  A    between atoms: _328  and  _329
REMARK  143  A    between atoms: _331  and  _333
REMARK  144  A    between atoms: _333  and  _334
REMARK  145  A    between atoms: _333  and  _336
REMARK  146  A    between atoms: _336  and  _337
REMARK  147  A    between atoms: _340  and  _342
REMARK  148  A    between atoms: _342  and  _343
REMARK  149  A    between atoms: _342  and  _345
REMARK  150  A    between atoms: _345  and  _346
REMARK  151  A    between atoms: _348  and  _350
REMARK  152  A    between atoms: _350  and  _351
REMARK  153  A    between atoms: _353  and  _355
REMARK  154  A    between atoms: _355  and  _356
REMARK  155  A    between atoms: _358  and  _360
REMARK  156  A    between atoms: _360  and  _361
REMARK  157  A    between atoms: _360  and  _363
REMARK  158  A    between atoms: _363  and  _364
REMARK  159  A    between atoms: _369  and  _371
REMARK  160  A    between atoms: _371  and  _372
REMARK  161  A    between atoms: _371  and  _374
REMARK  162  A    between atoms: _374  and  _375
REMARK  163  A    between atoms: _378  and  _380
REMARK  164  A    between atoms: _380  and  _381
REMARK  165  A    between atoms: _380  and  _383
REMARK  166  A    between atoms: _386  and  _388
REMARK  167  A    between atoms: _388  and  _389
REMARK  168  A    between atoms: _388  and  _391
REMARK  169  A    between atoms: _391  and  _392
REMARK  170  A    between atoms: _394  and  _396
REMARK  171  A    between atoms: _396  and  _397
REMARK  172  A    between atoms: _396  and  _399
REMARK  173  A    between atoms: _399  and  _400
REMARK  174  A    between atoms: _410  and  _412
REMARK  175  A    between atoms: _412  and  _413
REMARK  176  A    between atoms: _415  and  _417
REMARK  177  A    between atoms: _417  and  _418
REMARK  178  A    between atoms: _417  and  _420
REMARK  179  A    between atoms: _420  and  _421
REMARK  180  A    between atoms: _421  and  _422
REMARK  181  A    between atoms: _425  and  _427
REMARK  182  A    between atoms: _427  and  _428
REMARK  183  A    between atoms: _430  and  _432
REMARK  184  A    between atoms: _432  and  _433
REMARK  185  A    between atoms: _432  and  _435
REMARK  186  A    between atoms: _435  and  _436
REMARK  187  A    between atoms: _437  and  _439
REMARK  188  A    between atoms: _439  and  _440
REMARK  189  A    between atoms: _443  and  _445
REMARK  190  A    between atoms: _445  and  _446
REMARK  191  A    between atoms: _445  and  _448
REMARK  192  A    between atoms: _448  and  _449
REMARK  193  A    between atoms: _449  and  _450
REMARK  194  A    between atoms: _450  and  _451
REMARK  195  A    between atoms: _460  and  _462
REMARK  196  A    between atoms: _462  and  _463
REMARK  197  A    between atoms: _462  and  _465
REMARK  198  A    between atoms: _465  and  _466
REMARK  199  A    between atoms: _466  and  _467
REMARK  200  A    between atoms: _467  and  _468
REMARK  201  A    between atoms: _468  and  _469
REMARK  202  A    between atoms: _473  and  _475
REMARK  203  A    between atoms: _475  and  _476
REMARK  204  A    between atoms: _475  and  _478
REMARK  205  A    between atoms: _478  and  _479
REMARK  206  A    between atoms: _484  and  _485
REMARK  207  A    between atoms: _487  and  _489
REMARK  208  A    between atoms: _489  and  _490
REMARK  209  A    between atoms: _492  and  _494
REMARK  210  A    between atoms: _494  and  _495
REMARK  211  A    between atoms: _494  and  _497
REMARK  212  A    between atoms: _497  and  _498
REMARK  213  A    between atoms: _501  and  _503
REMARK  214  A    between atoms: _503  and  _504
REMARK  215  A    between atoms: _503  and  _506
REMARK  216  A    between atoms: _506  and  _507
REMARK  217  A    between atoms: _512  and  _513
REMARK  218  A    between atoms: _515  and  _517
REMARK  219  A    between atoms: _517  and  _518
REMARK  220  A    between atoms: _517  and  _520
REMARK  221  A    between atoms: _520  and  _521
REMARK                            x       y       z     vdW  Elec       q    Type
REMARK                         _______ _______ _______ _____ _____    ______ ____
ROOT
ATOM      1  CA  ASP A   1       3.402   2.201  16.916  0.00  0.00    +0.144 C 
ENDROOT
BRANCH   1   2
ATOM      2  N   ASP A   1       2.936   0.897  16.537  0.00  0.00    -0.239 NA
ATOM      3  H   ASP A   1       2.323   0.362  17.185  0.00  0.00    +0.142 HD
ENDBRANCH   1   2
BRANCH   1   4
ATOM      4  C   ASP A   1       4.777   2.083  17.547  0.00  0.00    +0.225 C 
ATOM      5  O   ASP A   1       4.938   2.123  18.783  0.00  0.00    -0.287 OA
ENDBRANCH   1   4
BRANCH   1   6
ATOM      6  CB  ASP A   1       2.369   2.908  17.825  0.00  0.00    +0.139 C 
BRANCH   6   7
ATOM      7  CG  ASP A   1       2.680   4.350  18.056  0.00  0.00    +0.367 C 
ATOM      8  OD2 ASP A   1       2.083   4.937  18.997  0.00  0.00    -0.246 OA
ATOM      9  OD1 ASP A   1       3.508   4.921  17.309  0.00  0.00    -0.246 OA
ENDBRANCH   6   7
ENDBRANCH   1   6
TORSDOF 4
REMARK  Name = ../refined-set-2016/2xc4/2xc4_pocket.pdb
REMARK  221 active torsions:
REMARK  status: ('A' for Active; 'I' for Inactive)
REMARK    1  A    between atoms: _1  and  _5
REMARK    2  A    between atoms: _5  and  _6
REMARK    3  A    between atoms: _5  and  _8
REMARK    4  A    between atoms: _8  and  _9
REMARK    5  A    between atoms: _12  and  _14
REMARK    6  A    between atoms: _14  and  _15
REMARK    7  A    between atoms: _14  and  _17
REMARK    8  A    between atoms: _20  and  _22
REMARK    9  A    between atoms: _22  and  _23
REMARK   10  A    between atoms: _22  and  _25
REMARK   11  A    between atoms: _25  and  _26
REMARK   12  A    between atoms: _31  and  _33
REMARK   13  A    between atoms: _33  and  _34
REMARK   14  A    between atoms: _33  and  _36
REMARK   15  A    between atoms: _36  and  _37
REMARK   16  A    between atoms: _37  and  _38
REMARK   17  A    between atoms: _43  and  _45
REMARK   18  A    between atoms: _45  and  _46
REMARK   19  A    between atoms: _45  and  _48
REMARK   20  A    between atoms: _48  and  _49
REMARK   21  A    between atoms: _52  and  _54
REMARK   22  A    between atoms: _54  and  _55
REMARK   23  A    between atoms: _54  and  _57
REMARK   24  A    between atoms: _57  and  _58
REMARK   25  A    between atoms: _58  and  _59
REMARK   26  A    between atoms: _59  and  _60
REMARK   27  A    between atoms: _60  and  _61
REMARK   28  A    between atoms: _65  and  _67
REMARK   29  A    between atoms: _67  and  _68
REMARK   30  A    between atoms: _67  and  _70
REMARK   31  A    between atoms: _70  and  _71
REMARK   32  A    between atoms: _71  and  _72
REMARK   33  A    between atoms: _75  and  _77
REMARK   34  A    between atoms: _77  and  _78
REMARK   35  A    between atoms: _77  and  _80
REMARK   36  A    between atoms: _80  and  _81
REMARK   37  A    between atoms: _84  and  _86
REMARK   38  A    between atoms: _86  and  _87
REMARK   39  A    between atoms: _86  and  _89
REMARK   40  A    between atoms: _89  and  _90
REMARK   41  A    between atoms: _95  and  _96
REMARK   42  A    between atoms: _98  and  _100
REMARK   43  A    between atoms: _100  and  _101
REMARK   44  A    between atoms: _100  and  _103
REMARK   45  A    between atoms: _103  and  _104
REMARK   46  A    between atoms: _107  and  _109
REMARK   47  A    between atoms: _109  and  _110
REMARK   48  A    between atoms: _109  and  _112
REMARK   49  A    between atoms: _112  and  _113
REMARK   50  A    between atoms: _116  and  _118
REMARK   51  A    between atoms: _118  and  _119
REMARK   52  A    between atoms: _118  and  _121
REMARK   53  A    between atoms: _124  and  _126
REMARK   54  A    between atoms: _126  and  _127
REMARK   55  A    between atoms: _126  and  _129
REMARK   56  A    between atoms: _129  and  _130
REMARK   57  A    between atoms: _130  and  _131
REMARK   58  A    between atoms: _131  and  _132
REMARK   59  A    between atoms: _141  and  _143
REMARK   60  A    between atoms: _143  and  _144
REMARK   61  A    between atoms: _143  and  _146
REMARK   62  A    between atoms: _146  and  _147
REMARK   63  A    between atoms: _152  and  _154
REMARK   64  A    between atoms: _154  and  _155
REMARK   65  A    between atoms: _154  and  _157
REMARK   66  A    between atoms: _157  and  _158
REMARK   67  A    between atoms: _158  and  _159
REMARK   68  A    between atoms: _162  and  _164
REMARK   69  A    between atoms: _164  and  _165
REMARK   70  A    between atoms: _164  and  _167
REMARK   71  A    between atoms: _167  and  _168
REMARK   72  A    between atoms: _168  and  _169
REMARK   73  A    between atoms: _169  and  _170
REMARK   74  A    between atoms: _170  and  _171
REMARK   75  A    between atoms: _175  and  _177
REMARK   76  A    between atoms: _177  and  _178
REMARK   77  A    between atoms: _180  and  _182
REMARK   78  A    between atoms: _182  and  _183
REMARK   79  A    between atoms: _182  and  _185
REMARK   80  A    between atoms: _188  and  _190
REMARK   81  A    between atoms: _190  and  _191
REMARK   82  A    between atoms: _190  and  _193
REMARK   83  A    between atoms: _193  and  _194
REMARK   84  A    between atoms: _196  and  _198
REMARK   85  A    between atoms: _198  and  _199
REMARK   86  A    between atoms: _198  and  _201
REMARK   87  A    between atoms: _201  and  _202
REMARK   88  A    between atoms: _204  and  _206
REMARK   89  A    between atoms: _206  and  _207
REMARK   90  A    between atoms: _206  and  _209
REMARK   91  A    between atoms: _209  and  _210
REMARK   92  A    between atoms: _216  and  _218
REMARK   93  A    between atoms: _218  and  _219
REMARK   94  A    between atoms: _218  and  _221
REMARK   95  A    between atoms: _221  and  _222
REMARK   96  A    between atoms: _225  and  _227
REMARK   97  A    between atoms: _227  and  _228
REMARK   98  A    between atoms: _227  and  _230
REMARK   99  A    between atoms: _230  and  _231
REMARK  100  A    between atoms: _234  and  _236
REMARK  101  A    between atoms: _236  and  _237
REMARK  102  A    between atoms: _236  and  _239
REMARK  103  A    between atoms: _239  and  _240
REMARK  104  A    between atoms: _243  and  _245
REMARK  105  A    between atoms: _245  and  _246
REMARK  106  A    between atoms: _245  and  _248
REMARK  107  A    between atoms: _248  and  _249
REMARK  108  A    between atoms: _249  and  _250
REMARK  109  A    between atoms: _252  and  _254
REMARK  110  A    between atoms: _254  and  _255
REMARK  111  A    between atoms: _254  and  _257
REMARK  112  A    between atoms: _257  and  _258
REMARK  113  A    between atoms: _264  and  _266
REMARK  114  A    between atoms: _266  and  _267
REMARK  115  A    between atoms: _266  and  _269
REMARK  116  A    between atoms: _271  and  _273
REMARK  117  A    between atoms: _273  and  _274
REMARK  118  A    between atoms: _277  and  _279
REMARK  119  A    between atoms: _279  and  _280
REMARK  120  A    between atoms: _282  and  _284
REMARK  121  A    between atoms: _284  and  _285
REMARK  122  A    between atoms: _284  and  _287
REMARK  123  A    between atoms: _287  and  _288
REMARK  124  A    between atoms: _288  and  _289
REMARK  125  A    between atoms: _292  and  _294
REMARK  126  A    between atoms: _294  and  _295
REMARK  127  A    between atoms: _294  and  _297
REMARK  128  A    between atoms: _297  and  _298
REMARK  129  A    between atoms: _301  and  _303
REMARK  130  A    between atoms: _303  and  _304
REMARK  131  A    between atoms: _307  and  _309
REMARK  132  A    between atoms: _309  and  _310
REMARK  133  A    between atoms: _309  and  _312
REMARK  134  A    between atoms: _312  and  _313
REMARK  135  A    between atoms: _313  and  _436
REMARK  136  A    between atoms: _314  and  _316
REMARK  137  A    between atoms: _316  and  _317
REMARK  138  A    between atoms: _316  and  _319
REMARK  139  A    between atoms: _319  and  _320
REMARK  140  A    between atoms: _320  and  _321
REMARK  141  A    between atoms: _326  and  _328
REMARK  142  A    between atoms: _328  and  _329
REMARK  143  A    between atoms: _331  and  _333
REMARK  144  A    between atoms: _333  and  _334
REMARK  145  A    between atoms: _333  and  _336
REMARK  146  A    between atoms: _336  and  _337
REMARK  147  A    between atoms: _340  and  _342
REMARK  148  A    between atoms: _342  and  _343
REMARK  149  A    between atoms: _342  and  _345
REMARK  150  A    between atoms: _345  and  _346
REMARK  151  A    between atoms: _348  and  _350
REMARK  152  A    between atoms: _350  and  _351
REMARK  153  A    between atoms: _353  and  _355
REMARK  154  A    between atoms: _355  and  _356
REMARK  155  A    between atoms: _358  and  _360
REMARK  156  A    between atoms: _360  and  _361
REMARK  157  A    between atoms: _360  and  _363
REMARK  158  A    between atoms: _363  and  _364
REMARK  159  A    between atoms: _369  and  _371
REMARK  160  A    between atoms: _371  and  _372
REMARK  161  A    between atoms: _371  and  _374
REMARK  162  A    between atoms: _374  and  _375
REMARK  163  A    between atoms: _378  and  _380
REMARK  164  A    between atoms: _380  and  _381
REMARK  165  A    between atoms: _380  and  _383
REMARK  166  A    between atoms: _386  and  _388
REMARK  167  A    between atoms: _388  and  _389
REMARK  168  A    between atoms: _388  and  _391
REMARK  169  A    between atoms: _391  and  _392
REMARK  170  A    between atoms: _394  and  _396
REMARK  171  A    between atoms: _396  and  _397
REMARK  172  A    between atoms: _396  and  _399
REMARK  173  A    between atoms: _399  and  _400
REMARK  174  A    between atoms: _410  and  _412
REMARK  175  A    between atoms: _412  and  _413
REMARK  176  A    between atoms: _415  and  _417
REMARK  177  A    between atoms: _417  and  _418
REMARK  178  A    between atoms: _417  and  _420
REMARK  179  A    between atoms: _420  and  _421
REMARK  180  A    between atoms: _421  and  _422
REMARK  181  A    between atoms: _425  and  _427
REMARK  182  A    between atoms: _427  and  _428
REMARK  183  A    between atoms: _430  and  _432
REMARK  184  A    between atoms: _432  and  _433
REMARK  185  A    between atoms: _432  and  _435
REMARK  186  A    between atoms: _435  and  _436
REMARK  187  A    between atoms: _437  and  _439
REMARK  188  A    between atoms: _439  and  _440
REMARK  189  A    between atoms: _443  and  _445
REMARK  190  A    between atoms: _445  and  _446
REMARK  191  A    between atoms: _445  and  _448
REMARK  192  A    between atoms: _448  and  _449
REMARK  193  A    between atoms: _449  and  _450
REMARK  194  A    between atoms: _450  and  _451
REMARK  195  A    between atoms: _460  and  _462
REMARK  196  A    between atoms: _462  and  _463
REMARK  197  A    between atoms: _462  and  _465
REMARK  198  A    between atoms: _465  and  _466
REMARK  199  A    between atoms: _466  and  _467
REMARK  200  A    between atoms: _467  and  _468
REMARK  201  A    between atoms: _468  and  _469
REMARK  202  A    between atoms: _473  and  _475
REMARK  203  A    between atoms: _475  and  _476
REMARK  204  A    between atoms: _475  and  _478
REMARK  205  A    between atoms: _478  and  _479
REMARK  206  A    between atoms: _484  and  _485
REMARK  207  A    between atoms: _487  and  _489
REMARK  208  A    between atoms: _489  and  _490
REMARK  209  A    between atoms: _492  and  _494
REMARK  210  A    between atoms: _494  and  _495
REMARK  211  A    between atoms: _494  and  _497
REMARK  212  A    between atoms: _497  and  _498
REMARK  213  A    between atoms: _501  and  _503
REMARK  214  A    between atoms: _503  and  _504
REMARK  215  A    between atoms: _503  and  _506
REMARK  216  A    between atoms: _506  and  _507
REMARK  217  A    between atoms: _512  and  _513
REMARK  218  A    between atoms: _515  and  _517
REMARK  219  A    between atoms: _517  and  _518
REMARK  220  A    between atoms: _517  and  _520
REMARK  221  A    between atoms: _520  and  _521
REMARK                            x       y       z     vdW  Elec       q    Type
REMARK                         _______ _______ _______ _____ _____    ______ ____
ROOT
ATOM      1  CA  VAL A   1       6.012   4.426  32.935  0.00  0.00    +0.133 C 
ENDROOT
BRANCH   1   2
ATOM      2  CB  VAL A   1       4.593   4.676  32.342  0.00  0.00    +0.023 C 
ATOM      3  CG2 VAL A   1       3.646   5.362  33.334  0.00  0.00    +0.002 C 
ATOM      4  CG1 VAL A   1       4.680   5.469  31.051  0.00  0.00    +0.002 C 
ENDBRANCH   1   2
BRANCH   1   5
ATOM      5  N   VAL A   1       5.983   3.509  34.068  0.00  0.00    -0.239 NA
ATOM      6  H   VAL A   1       5.336   3.710  34.857  0.00  0.00    +0.142 HD
ENDBRANCH   1   5
BRANCH   1   7
ATOM      7  C   VAL A   1       6.669   5.743  33.358  0.00  0.00    +0.224 C 
ATOM      8  O   VAL A   1       6.581   6.174  34.526  0.00  0.00    -0.287 OA
ENDBRANCH   1   7
TORSDOF 3
REMARK  Name = ../refined-set-2016/2xc4/2xc4_pocket.pdb
REMARK  221 active torsions:
REMARK  status: ('A' for Active; 'I' for Inactive)
REMARK    1  A    between atoms: _1  and  _5
REMARK    2  A    between atoms: _5  and  _6
REMARK    3  A    between atoms: _5  and  _8
REMARK    4  A    between atoms: _8  and  _9
REMARK    5  A    between atoms: _12  and  _14
REMARK    6  A    between atoms: _14  and  _15
REMARK    7  A    between atoms: _14  and  _17
REMARK    8  A    between atoms: _20  and  _22
REMARK    9  A    between atoms: _22  and  _23
REMARK   10  A    between atoms: _22  and  _25
REMARK   11  A    between atoms: _25  and  _26
REMARK   12  A    between atoms: _31  and  _33
REMARK   13  A    between atoms: _33  and  _34
REMARK   14  A    between atoms: _33  and  _36
REMARK   15  A    between atoms: _36  and  _37
REMARK   16  A    between atoms: _37  and  _38
REMARK   17  A    between atoms: _43  and  _45
REMARK   18  A    between atoms: _45  and  _46
REMARK   19  A    between atoms: _45  and  _48
REMARK   20  A    between atoms: _48  and  _49
REMARK   21  A    between atoms: _52  and  _54
REMARK   22  A    between atoms: _54  and  _55
REMARK   23  A    between atoms: _54  and  _57
REMARK   24  A    between atoms: _57  and  _58
REMARK   25  A    between atoms: _58  and  _59
REMARK   26  A    between atoms: _59  and  _60
REMARK   27  A    between atoms: _60  and  _61
REMARK   28  A    between atoms: _65  and  _67
REMARK   29  A    between atoms: _67  and  _68
REMARK   30  A    between atoms: _67  and  _70
REMARK   31  A    between atoms: _70  and  _71
REMARK   32  A    between atoms: _71  and  _72
REMARK   33  A    between atoms: _75  and  _77
REMARK   34  A    between atoms: _77  and  _78
REMARK   35  A    between atoms: _77  and  _80
REMARK   36  A    between atoms: _80  and  _81
REMARK   37  A    between atoms: _84  and  _86
REMARK   38  A    between atoms: _86  and  _87
REMARK   39  A    between atoms: _86  and  _89
REMARK   40  A    between atoms: _89  and  _90
REMARK   41  A    between atoms: _95  and  _96
REMARK   42  A    between atoms: _98  and  _100
REMARK   43  A    between atoms: _100  and  _101
REMARK   44  A    between atoms: _100  and  _103
REMARK   45  A    between atoms: _103  and  _104
REMARK   46  A    between atoms: _107  and  _109
REMARK   47  A    between atoms: _109  and  _110
REMARK   48  A    between atoms: _109  and  _112
REMARK   49  A    between atoms: _112  and  _113
REMARK   50  A    between atoms: _116  and  _118
REMARK   51  A    between atoms: _118  and  _119
REMARK   52  A    between atoms: _118  and  _121
REMARK   53  A    between atoms: _124  and  _126
REMARK   54  A    between atoms: _126  and  _127
REMARK   55  A    between atoms: _126  and  _129
REMARK   56  A    between atoms: _129  and  _130
REMARK   57  A    between atoms: _130  and  _131
REMARK   58  A    between atoms: _131  and  _132
REMARK   59  A    between atoms: _141  and  _143
REMARK   60  A    between atoms: _143  and  _144
REMARK   61  A    between atoms: _143  and  _146
REMARK   62  A    between atoms: _146  and  _147
REMARK   63  A    between atoms: _152  and  _154
REMARK   64  A    between atoms: _154  and  _155
REMARK   65  A    between atoms: _154  and  _157
REMARK   66  A    between atoms: _157  and  _158
REMARK   67  A    between atoms: _158  and  _159
REMARK   68  A    between atoms: _162  and  _164
REMARK   69  A    between atoms: _164  and  _165
REMARK   70  A    between atoms: _164  and  _167
REMARK   71  A    between atoms: _167  and  _168
REMARK   72  A    between atoms: _168  and  _169
REMARK   73  A    between atoms: _169  and  _170
REMARK   74  A    between atoms: _170  and  _171
REMARK   75  A    between atoms: _175  and  _177
REMARK   76  A    between atoms: _177  and  _178
REMARK   77  A    between atoms: _180  and  _182
REMARK   78  A    between atoms: _182  and  _183
REMARK   79  A    between atoms: _182  and  _185
REMARK   80  A    between atoms: _188  and  _190
REMARK   81  A    between atoms: _190  and  _191
REMARK   82  A    between atoms: _190  and  _193
REMARK   83  A    between atoms: _193  and  _194
REMARK   84  A    between atoms: _196  and  _198
REMARK   85  A    between atoms: _198  and  _199
REMARK   86  A    between atoms: _198  and  _201
REMARK   87  A    between atoms: _201  and  _202
REMARK   88  A    between atoms: _204  and  _206
REMARK   89  A    between atoms: _206  and  _207
REMARK   90  A    between atoms: _206  and  _209
REMARK   91  A    between atoms: _209  and  _210
REMARK   92  A    between atoms: _216  and  _218
REMARK   93  A    between atoms: _218  and  _219
REMARK   94  A    between atoms: _218  and  _221
REMARK   95  A    between atoms: _221  and  _222
REMARK   96  A    between atoms: _225  and  _227
REMARK   97  A    between atoms: _227  and  _228
REMARK   98  A    between atoms: _227  and  _230
REMARK   99  A    between atoms: _230  and  _231
REMARK  100  A    between atoms: _234  and  _236
REMARK  101  A    between atoms: _236  and  _237
REMARK  102  A    between atoms: _236  and  _239
REMARK  103  A    between atoms: _239  and  _240
REMARK  104  A    between atoms: _243  and  _245
REMARK  105  A    between atoms: _245  and  _246
REMARK  106  A    between atoms: _245  and  _248
REMARK  107  A    between atoms: _248  and  _249
REMARK  108  A    between atoms: _249  and  _250
REMARK  109  A    between atoms: _252  and  _254
REMARK  110  A    between atoms: _254  and  _255
REMARK  111  A    between atoms: _254  and  _257
REMARK  112  A    between atoms: _257  and  _258
REMARK  113  A    between atoms: _264  and  _266
REMARK  114  A    between atoms: _266  and  _267
REMARK  115  A    between atoms: _266  and  _269
REMARK  116  A    between atoms: _271  and  _273
REMARK  117  A    between atoms: _273  and  _274
REMARK  118  A    between atoms: _277  and  _279
REMARK  119  A    between atoms: _279  and  _280
REMARK  120  A    between atoms: _282  and  _284
REMARK  121  A    between atoms: _284  and  _285
REMARK  122  A    between atoms: _284  and  _287
REMARK  123  A    between atoms: _287  and  _288
REMARK  124  A    between atoms: _288  and  _289
REMARK  125  A    between atoms: _292  and  _294
REMARK  126  A    between atoms: _294  and  _295
REMARK  127  A    between atoms: _294  and  _297
REMARK  128  A    between atoms: _297  and  _298
REMARK  129  A    between atoms: _301  and  _303
REMARK  130  A    between atoms: _303  and  _304
REMARK  131  A    between atoms: _307  and  _309
REMARK  132  A    between atoms: _309  and  _310
REMARK  133  A    between atoms: _309  and  _312
REMARK  134  A    between atoms: _312  and  _313
REMARK  135  A    between atoms: _313  and  _436
REMARK  136  A    between atoms: _314  and  _316
REMARK  137  A    between atoms: _316  and  _317
REMARK  138  A    between atoms: _316  and  _319
REMARK  139  A    between atoms: _319  and  _320
REMARK  140  A    between atoms: _320  and  _321
REMARK  141  A    between atoms: _326  and  _328
REMARK  142  A    between atoms: _328  and  _329
REMARK  143  A    between atoms: _331  and  _333
REMARK  144  A    between atoms: _333  and  _334
REMARK  145  A    between atoms: _333  and  _336
REMARK  146  A    between atoms: _336  and  _337
REMARK  147  A    between atoms: _340  and  _342
REMARK  148  A    between atoms: _342  and  _343
REMARK  149  A    between atoms: _342  and  _345
REMARK  150  A    between atoms: _345  and  _346
REMARK  151  A    between atoms: _348  and  _350
REMARK  152  A    between atoms: _350  and  _351
REMARK  153  A    between atoms: _353  and  _355
REMARK  154  A    between atoms: _355  and  _356
REMARK  155  A    between atoms: _358  and  _360
REMARK  156  A    between atoms: _360  and  _361
REMARK  157  A    between atoms: _360  and  _363
REMARK  158  A    between atoms: _363  and  _364
REMARK  159  A    between atoms: _369  and  _371
REMARK  160  A    between atoms: _371  and  _372
REMARK  161  A    between atoms: _371  and  _374
REMARK  162  A    between atoms: _374  and  _375
REMARK  163  A    between atoms: _378  and  _380
REMARK  164  A    between atoms: _380  and  _381
REMARK  165  A    between atoms: _380  and  _383
REMARK  166  A    between atoms: _386  and  _388
REMARK  167  A    between atoms: _388  and  _389
REMARK  168  A    between atoms: _388  and  _391
REMARK  169  A    between atoms: _391  and  _392
REMARK  170  A    between atoms: _394  and  _396
REMARK  171  A    between atoms: _396  and  _397
REMARK  172  A    between atoms: _396  and  _399
REMARK  173  A    between atoms: _399  and  _400
REMARK  174  A    between atoms: _410  and  _412
REMARK  175  A    between atoms: _412  and  _413
REMARK  176  A    between atoms: _415  and  _417
REMARK  177  A    between atoms: _417  and  _418
REMARK  178  A    between atoms: _417  and  _420
REMARK  179  A    between atoms: _420  and  _421
REMARK  180  A    between atoms: _421  and  _422
REMARK  181  A    between atoms: _425  and  _427
REMARK  182  A    between atoms: _427  and  _428
REMARK  183  A    between atoms: _430  and  _432
REMARK  184  A    between atoms: _432  and  _433
REMARK  185  A    between atoms: _432  and  _435
REMARK  186  A    between atoms: _435  and  _436
REMARK  187  A    between atoms: _437  and  _439
REMARK  188  A    between atoms: _439  and  _440
REMARK  189  A    between atoms: _443  and  _445
REMARK  190  A    between atoms: _445  and  _446
REMARK  191  A    between atoms: _445  and  _448
REMARK  192  A    between atoms: _448  and  _449
REMARK  193  A    between atoms: _449  and  _450
REMARK  194  A    between atoms: _450  and  _451
REMARK  195  A    between atoms: _460  and  _462
REMARK  196  A    between atoms: _462  and  _463
REMARK  197  A    between atoms: _462  and  _465
REMARK  198  A    between atoms: _465  and  _466
REMARK  199  A    between atoms: _466  and  _467
REMARK  200  A    between atoms: _467  and  _468
REMARK  201  A    between atoms: _468  and  _469
REMARK  202  A    between atoms: _473  and  _475
REMARK  203  A    between atoms: _475  and  _476
REMARK  204  A    between atoms: _475  and  _478
REMARK  205  A    between atoms: _478  and  _479
REMARK  206  A    between atoms: _484  and  _485
REMARK  207  A    between atoms: _487  and  _489
REMARK  208  A    between atoms: _489  and  _490
REMARK  209  A    between atoms: _492  and  _494
REMARK  210  A    between atoms: _494  and  _495
REMARK  211  A    between atoms: _494  and  _497
REMARK  212  A    between atoms: _497  and  _498
REMARK  213  A    between atoms: _501  and  _503
REMARK  214  A    between atoms: _503  and  _504
REMARK  215  A    between atoms: _503  and  _506
REMARK  216  A    between atoms: _506  and  _507
REMARK  217  A    between atoms: _512  and  _513
REMARK  218  A    between atoms: _515  and  _517
REMARK  219  A    between atoms: _517  and  _518
REMARK  220  A    between atoms: _517  and  _520
REMARK  221  A    between atoms: _520  and  _521
REMARK                            x       y       z     vdW  Elec       q    Type
REMARK                         _______ _______ _______ _____ _____    ______ ____
ROOT
ATOM      1  NE  ARG A   1      -0.975  18.590  27.169  0.00  0.00    -0.265 N 
ATOM      2  HE  ARG A   1      -0.041  18.545  26.714  0.00  0.00    +0.259 HD
ATOM      3  CZ  ARG A   1      -1.925  19.296  26.564  0.00  0.00    +0.342 C 
ATOM      4  NH2 ARG A   1      -3.146  19.362  27.076  0.00  0.00    -0.292 N 
ATOM      5 HH21 ARG A   1      -3.368  18.859  27.959  0.00  0.00    +0.255 HD
ATOM      6 HH22 ARG A   1      -3.882  19.917  26.595  0.00  0.00    +0.255 HD
ATOM      7  NH1 ARG A   1      -1.657  19.904  25.423  0.00  0.00    -0.292 N 
ATOM      8 HH11 ARG A   1      -0.708  19.829  25.004  0.00  0.00    +0.255 HD
ATOM      9 HH12 ARG A   1      -2.395  20.458  24.943  0.00  0.00    +0.255 HD
ENDROOT
BRANCH   1  10
ATOM     10  CD  ARG A   1      -1.153  17.873  28.429  0.00  0.00    +0.174 C 
BRANCH  10  11
ATOM     11  CG  ARG A   1       0.223  17.518  29.048  0.00  0.00    +0.045 C 
BRANCH  11  12
ATOM     12  CB  ARG A   1       0.052  17.022  30.440  0.00  0.00    +0.029 C 
BRANCH  12  13
ATOM     13  CA  ARG A   1       1.366  16.830  31.214  0.00  0.00    +0.133 C 
BRANCH  13  14
ATOM     14  N   ARG A   1       2.325  16.053  30.414  0.00  0.00    -0.239 NA
ATOM     15  H   ARG A   1       2.056  15.767  29.451  0.00  0.00    +0.142 HD
ENDBRANCH  13  14
BRANCH  13  16
ATOM     16  C   ARG A   1       1.047  16.120  32.530  0.00  0.00    +0.224 C 
ATOM     17  O   ARG A   1       1.003  14.862  32.587  0.00  0.00    -0.287 OA
ENDBRANCH  13  16
ENDBRANCH  12  13
ENDBRANCH  11  12
ENDBRANCH  10  11
ENDBRANCH   1  10
TORSDOF 6
REMARK  Name = ../refined-set-2016/2xc4/2xc4_pocket.pdb
REMARK  221 active torsions:
REMARK  status: ('A' for Active; 'I' for Inactive)
REMARK    1  A    between atoms: _1  and  _5
REMARK    2  A    between atoms: _5  and  _6
REMARK    3  A    between atoms: _5  and  _8
REMARK    4  A    between atoms: _8  and  _9
REMARK    5  A    between atoms: _12  and  _14
REMARK    6  A    between atoms: _14  and  _15
REMARK    7  A    between atoms: _14  and  _17
REMARK    8  A    between atoms: _20  and  _22
REMARK    9  A    between atoms: _22  and  _23
REMARK   10  A    between atoms: _22  and  _25
REMARK   11  A    between atoms: _25  and  _26
REMARK   12  A    between atoms: _31  and  _33
REMARK   13  A    between atoms: _33  and  _34
REMARK   14  A    between atoms: _33  and  _36
REMARK   15  A    between atoms: _36  and  _37
REMARK   16  A    between atoms: _37  and  _38
REMARK   17  A    between atoms: _43  and  _45
REMARK   18  A    between atoms: _45  and  _46
REMARK   19  A    between atoms: _45  and  _48
REMARK   20  A    between atoms: _48  and  _49
REMARK   21  A    between atoms: _52  and  _54
REMARK   22  A    between atoms: _54  and  _55
REMARK   23  A    between atoms: _54  and  _57
REMARK   24  A    between atoms: _57  and  _58
REMARK   25  A    between atoms: _58  and  _59
REMARK   26  A    between atoms: _59  and  _60
REMARK   27  A    between atoms: _60  and  _61
REMARK   28  A    between atoms: _65  and  _67
REMARK   29  A    between atoms: _67  and  _68
REMARK   30  A    between atoms: _67  and  _70
REMARK   31  A    between atoms: _70  and  _71
REMARK   32  A    between atoms: _71  and  _72
REMARK   33  A    between atoms: _75  and  _77
REMARK   34  A    between atoms: _77  and  _78
REMARK   35  A    between atoms: _77  and  _80
REMARK   36  A    between atoms: _80  and  _81
REMARK   37  A    between atoms: _84  and  _86
REMARK   38  A    between atoms: _86  and  _87
REMARK   39  A    between atoms: _86  and  _89
REMARK   40  A    between atoms: _89  and  _90
REMARK   41  A    between atoms: _95  and  _96
REMARK   42  A    between atoms: _98  and  _100
REMARK   43  A    between atoms: _100  and  _101
REMARK   44  A    between atoms: _100  and  _103
REMARK   45  A    between atoms: _103  and  _104
REMARK   46  A    between atoms: _107  and  _109
REMARK   47  A    between atoms: _109  and  _110
REMARK   48  A    between atoms: _109  and  _112
REMARK   49  A    between atoms: _112  and  _113
REMARK   50  A    between atoms: _116  and  _118
REMARK   51  A    between atoms: _118  and  _119
REMARK   52  A    between atoms: _118  and  _121
REMARK   53  A    between atoms: _124  and  _126
REMARK   54  A    between atoms: _126  and  _127
REMARK   55  A    between atoms: _126  and  _129
REMARK   56  A    between atoms: _129  and  _130
REMARK   57  A    between atoms: _130  and  _131
REMARK   58  A    between atoms: _131  and  _132
REMARK   59  A    between atoms: _141  and  _143
REMARK   60  A    between atoms: _143  and  _144
REMARK   61  A    between atoms: _143  and  _146
REMARK   62  A    between atoms: _146  and  _147
REMARK   63  A    between atoms: _152  and  _154
REMARK   64  A    between atoms: _154  and  _155
REMARK   65  A    between atoms: _154  and  _157
REMARK   66  A    between atoms: _157  and  _158
REMARK   67  A    between atoms: _158  and  _159
REMARK   68  A    between atoms: _162  and  _164
REMARK   69  A    between atoms: _164  and  _165
REMARK   70  A    between atoms: _164  and  _167
REMARK   71  A    between atoms: _167  and  _168
REMARK   72  A    between atoms: _168  and  _169
REMARK   73  A    between atoms: _169  and  _170
REMARK   74  A    between atoms: _170  and  _171
REMARK   75  A    between atoms: _175  and  _177
REMARK   76  A    between atoms: _177  and  _178
REMARK   77  A    between atoms: _180  and  _182
REMARK   78  A    between atoms: _182  and  _183
REMARK   79  A    between atoms: _182  and  _185
REMARK   80  A    between atoms: _188  and  _190
REMARK   81  A    between atoms: _190  and  _191
REMARK   82  A    between atoms: _190  and  _193
REMARK   83  A    between atoms: _193  and  _194
REMARK   84  A    between atoms: _196  and  _198
REMARK   85  A    between atoms: _198  and  _199
REMARK   86  A    between atoms: _198  and  _201
REMARK   87  A    between atoms: _201  and  _202
REMARK   88  A    between atoms: _204  and  _206
REMARK   89  A    between atoms: _206  and  _207
REMARK   90  A    between atoms: _206  and  _209
REMARK   91  A    between atoms: _209  and  _210
REMARK   92  A    between atoms: _216  and  _218
REMARK   93  A    between atoms: _218  and  _219
REMARK   94  A    between atoms: _218  and  _221
REMARK   95  A    between atoms: _221  and  _222
REMARK   96  A    between atoms: _225  and  _227
REMARK   97  A    between atoms: _227  and  _228
REMARK   98  A    between atoms: _227  and  _230
REMARK   99  A    between atoms: _230  and  _231
REMARK  100  A    between atoms: _234  and  _236
REMARK  101  A    between atoms: _236  and  _237
REMARK  102  A    between atoms: _236  and  _239
REMARK  103  A    between atoms: _239  and  _240
REMARK  104  A    between atoms: _243  and  _245
REMARK  105  A    between atoms: _245  and  _246
REMARK  106  A    between atoms: _245  and  _248
REMARK  107  A    between atoms: _248  and  _249
REMARK  108  A    between atoms: _249  and  _250
REMARK  109  A    between atoms: _252  and  _254
REMARK  110  A    between atoms: _254  and  _255
REMARK  111  A    between atoms: _254  and  _257
REMARK  112  A    between atoms: _257  and  _258
REMARK  113  A    between atoms: _264  and  _266
REMARK  114  A    between atoms: _266  and  _267
REMARK  115  A    between atoms: _266  and  _269
REMARK  116  A    between atoms: _271  and  _273
REMARK  117  A    between atoms: _273  and  _274
REMARK  118  A    between atoms: _277  and  _279
REMARK  119  A    between atoms: _279  and  _280
REMARK  120  A    between atoms: _282  and  _284
REMARK  121  A    between atoms: _284  and  _285
REMARK  122  A    between atoms: _284  and  _287
REMARK  123  A    between atoms: _287  and  _288
REMARK  124  A    between atoms: _288  and  _289
REMARK  125  A    between atoms: _292  and  _294
REMARK  126  A    between atoms: _294  and  _295
REMARK  127  A    between atoms: _294  and  _297
REMARK  128  A    between atoms: _297  and  _298
REMARK  129  A    between atoms: _301  and  _303
REMARK  130  A    between atoms: _303  and  _304
REMARK  131  A    between atoms: _307  and  _309
REMARK  132  A    between atoms: _309  and  _310
REMARK  133  A    between atoms: _309  and  _312
REMARK  134  A    between atoms: _312  and  _313
REMARK  135  A    between atoms: _313  and  _436
REMARK  136  A    between atoms: _314  and  _316
REMARK  137  A    between atoms: _316  and  _317
REMARK  138  A    between atoms: _316  and  _319
REMARK  139  A    between atoms: _319  and  _320
REMARK  140  A    between atoms: _320  and  _321
REMARK  141  A    between atoms: _326  and  _328
REMARK  142  A    between atoms: _328  and  _329
REMARK  143  A    between atoms: _331  and  _333
REMARK  144  A    between atoms: _333  and  _334
REMARK  145  A    between atoms: _333  and  _336
REMARK  146  A    between atoms: _336  and  _337
REMARK  147  A    between atoms: _340  and  _342
REMARK  148  A    between atoms: _342  and  _343
REMARK  149  A    between atoms: _342  and  _345
REMARK  150  A    between atoms: _345  and  _346
REMARK  151  A    between atoms: _348  and  _350
REMARK  152  A    between atoms: _350  and  _351
REMARK  153  A    between atoms: _353  and  _355
REMARK  154  A    between atoms: _355  and  _356
REMARK  155  A    between atoms: _358  and  _360
REMARK  156  A    between atoms: _360  and  _361
REMARK  157  A    between atoms: _360  and  _363
REMARK  158  A    between atoms: _363  and  _364
REMARK  159  A    between atoms: _369  and  _371
REMARK  160  A    between atoms: _371  and  _372
REMARK  161  A    between atoms: _371  and  _374
REMARK  162  A    between atoms: _374  and  _375
REMARK  163  A    between atoms: _378  and  _380
REMARK  164  A    between atoms: _380  and  _381
REMARK  165  A    between atoms: _380  and  _383
REMARK  166  A    between atoms: _386  and  _388
REMARK  167  A    between atoms: _388  and  _389
REMARK  168  A    between atoms: _388  and  _391
REMARK  169  A    between atoms: _391  and  _392
REMARK  170  A    between atoms: _394  and  _396
REMARK  171  A    between atoms: _396  and  _397
REMARK  172  A    between atoms: _396  and  _399
REMARK  173  A    between atoms: _399  and  _400
REMARK  174  A    between atoms: _410  and  _412
REMARK  175  A    between atoms: _412  and  _413
REMARK  176  A    between atoms: _415  and  _417
REMARK  177  A    between atoms: _417  and  _418
REMARK  178  A    between atoms: _417  and  _420
REMARK  179  A    between atoms: _420  and  _421
REMARK  180  A    between atoms: _421  and  _422
REMARK  181  A    between atoms: _425  and  _427
REMARK  182  A    between atoms: _427  and  _428
REMARK  183  A    between atoms: _430  and  _432
REMARK  184  A    between atoms: _432  and  _433
REMARK  185  A    between atoms: _432  and  _435
REMARK  186  A    between atoms: _435  and  _436
REMARK  187  A    between atoms: _437  and  _439
REMARK  188  A    between atoms: _439  and  _440
REMARK  189  A    between atoms: _443  and  _445
REMARK  190  A    between atoms: _445  and  _446
REMARK  191  A    between atoms: _445  and  _448
REMARK  192  A    between atoms: _448  and  _449
REMARK  193  A    between atoms: _449  and  _450
REMARK  194  A    between atoms: _450  and  _451
REMARK  195  A    between atoms: _460  and  _462
REMARK  196  A    between atoms: _462  and  _463
REMARK  197  A    between atoms: _462  and  _465
REMARK  198  A    between atoms: _465  and  _466
REMARK  199  A    between atoms: _466  and  _467
REMARK  200  A    between atoms: _467  and  _468
REMARK  201  A    between atoms: _468  and  _469
REMARK  202  A    between atoms: _473  and  _475
REMARK  203  A    between atoms: _475  and  _476
REMARK  204  A    between atoms: _475  and  _478
REMARK  205  A    between atoms: _478  and  _479
REMARK  206  A    between atoms: _484  and  _485
REMARK  207  A    between atoms: _487  and  _489
REMARK  208  A    between atoms: _489  and  _490
REMARK  209  A    between atoms: _492  and  _494
REMARK  210  A    between atoms: _494  and  _495
REMARK  211  A    between atoms: _494  and  _497
REMARK  212  A    between atoms: _497  and  _498
REMARK  213  A    between atoms: _501  and  _503
REMARK  214  A    between atoms: _503  and  _504
REMARK  215  A    between atoms: _503  and  _506
REMARK  216  A    between atoms: _506  and  _507
REMARK  217  A    between atoms: _512  and  _513
REMARK  218  A    between atoms: _515  and  _517
REMARK  219  A    between atoms: _517  and  _518
REMARK  220  A    between atoms: _517  and  _520
REMARK  221  A    between atoms: _520  and  _521
REMARK                            x       y       z     vdW  Elec       q    Type
REMARK                         _______ _______ _______ _____ _____    ______ ____
ROOT
ATOM      1  C   GLU A   2      -4.986  17.467  30.131  0.00  0.00    +0.241 C 
ATOM      2  N   LYS A   3      -5.534  18.534  30.732  0.00  0.00    -0.297 N 
ATOM      3  H   LYS A   3      -5.976  18.414  31.666  0.00  0.00    +0.150 HD
ATOM      4  O   GLU A   2      -4.370  17.541  29.067  0.00  0.00    -0.273 OA
ENDROOT
BRANCH   1   5
ATOM      5  CA  GLU A   2      -5.159  16.099  30.817  0.00  0.00    +0.149 C 
BRANCH   5   7
ATOM      6  C   HIS A   1      -3.648  16.603  32.644  0.00  0.00    +0.239 C 
ATOM      7  N   GLU A   2      -4.785  16.059  32.227  0.00  0.00    -0.297 N 
ATOM      8  H   GLU A   2      -5.417  15.599  32.913  0.00  0.00    +0.150 HD
ATOM      9  O   HIS A   1      -2.926  17.262  31.902  0.00  0.00    -0.274 OA
BRANCH   6  10
ATOM     10  CA  HIS A   1      -3.234  16.334  34.090  0.00  0.00    +0.151 C 
BRANCH  10  11
ATOM     11  N   HIS A   1      -1.832  16.719  34.202  0.00  0.00    -0.238 NA
ATOM     12  H   HIS A   1      -1.446  17.397  33.515  0.00  0.00    +0.142 HD
ENDBRANCH  10  11
BRANCH  10  13
ATOM     13  CB  HIS A   1      -4.128  17.047  35.129  0.00  0.00    +0.074 C 
BRANCH  13  14
ATOM     14  CG  HIS A   1      -4.112  18.536  35.037  0.00  0.00    +0.082 A 
ATOM     15  CD2 HIS A   1      -3.259  19.455  35.546  0.00  0.00    +0.115 A 
ATOM     16  NE2 HIS A   1      -3.716  20.692  35.157  0.00  0.00    -0.221 NA
ATOM     17  CE1 HIS A   1      -4.818  20.538  34.444  0.00  0.00    +0.199 A 
ATOM     18  ND1 HIS A   1      -5.083  19.246  34.361  0.00  0.00    -0.227 NA
ENDBRANCH  13  14
ENDBRANCH  10  13
ENDBRANCH   6  10
ENDBRANCH   5   7
BRANCH   5  19
ATOM     19  CB  GLU A   2      -6.583  15.574  30.626  0.00  0.00    +0.041 C 
BRANCH  19  20
ATOM     20  CG  GLU A   2      -6.974  15.438  29.158  0.00  0.00    +0.116 C 
BRANCH  20  21
ATOM     21  CD  GLU A   2      -8.307  14.749  28.983  0.00  0.00    +0.365 C 
ATOM     22  OE2 GLU A   2      -8.563  13.732  29.660  0.00  0.00    -0.246 OA
ATOM     23  OE1 GLU A   2      -9.111  15.235  28.170  0.00  0.00    -0.246 OA
ENDBRANCH  20  21
ENDBRANCH  19  20
ENDBRANCH   5  19
ENDBRANCH   1   5
BRANCH   2  24
ATOM     24  CA  LYS A   3      -5.530  19.868  30.113  0.00  0.00    +0.149 C 
BRANCH  24  25
ATOM     25  C   LYS A   3      -4.392  20.721  30.671  0.00  0.00    +0.241 C 
ATOM     26  N   GLY A   4      -3.464  20.056  31.360  0.00  0.00    -0.296 N 
ATOM     27  H   GLY A   4      -3.529  19.019  31.404  0.00  0.00    +0.150 HD
ATOM     28  O   LYS A   3      -4.363  21.941  30.482  0.00  0.00    -0.273 OA
BRANCH  26  29
ATOM     29  CA  GLY A   4      -2.363  20.711  32.055  0.00  0.00    +0.163 C 
BRANCH  29  30
ATOM     30  C   GLY A   4      -1.157  21.004  31.197  0.00  0.00    +0.229 C 
ATOM     31  O   GLY A   4      -1.164  20.801  29.983  0.00  0.00    -0.286 OA
ENDBRANCH  29  30
ENDBRANCH  26  29
ENDBRANCH  24  25
BRANCH  24  32
ATOM     32  CB  LYS A   3      -6.886  20.581  30.307  0.00  0.00    +0.029 C 
BRANCH  32  33
ATOM     33  CG  LYS A   3      -8.131  19.698  30.074  0.00  0.00    +0.000 C 
BRANCH  33  34
ATOM     34  CD  LYS A   3      -8.235  19.268  28.611  0.00  0.00    -0.024 C 
BRANCH  34  35
ATOM     35  CE  LYS A   3      -9.619  18.738  28.274  0.00  0.00    -0.086 C 
BRANCH  35  36
ATOM     36  NZ  LYS A   3      -9.530  17.790  27.119  0.00  0.00    +0.380 N 
ATOM     37  HZ1 LYS A   3      -8.908  16.995  27.371  0.00  0.00    -0.089 HD
ATOM     38  HZ2 LYS A   3     -10.479  17.431  26.893  0.00  0.00    -0.089 HD
ATOM     39  HZ3 LYS A   3      -9.141  18.288  26.293  0.00  0.00    -0.089 HD
ENDBRANCH  35  36
ENDBRANCH  34  35
ENDBRANCH  33  34
ENDBRANCH  32  33
ENDBRANCH  24  32
ENDBRANCH   2  24
TORSDOF 18
REMARK  Name = ../refined-set-2016/2xc4/2xc4_pocket.pdb
REMARK  221 active torsions:
REMARK  status: ('A' for Active; 'I' for Inactive)
REMARK    1  A    between atoms: _1  and  _5
REMARK    2  A    between atoms: _5  and  _6
REMARK    3  A    between atoms: _5  and  _8
REMARK    4  A    between atoms: _8  and  _9
REMARK    5  A    between atoms: _12  and  _14
REMARK    6  A    between atoms: _14  and  _15
REMARK    7  A    between atoms: _14  and  _17
REMARK    8  A    between atoms: _20  and  _22
REMARK    9  A    between atoms: _22  and  _23
REMARK   10  A    between atoms: _22  and  _25
REMARK   11  A    between atoms: _25  and  _26
REMARK   12  A    between atoms: _31  and  _33
REMARK   13  A    between atoms: _33  and  _34
REMARK   14  A    between atoms: _33  and  _36
REMARK   15  A    between atoms: _36  and  _37
REMARK   16  A    between atoms: _37  and  _38
REMARK   17  A    between atoms: _43  and  _45
REMARK   18  A    between atoms: _45  and  _46
REMARK   19  A    between atoms: _45  and  _48
REMARK   20  A    between atoms: _48  and  _49
REMARK   21  A    between atoms: _52  and  _54
REMARK   22  A    between atoms: _54  and  _55
REMARK   23  A    between atoms: _54  and  _57
REMARK   24  A    between atoms: _57  and  _58
REMARK   25  A    between atoms: _58  and  _59
REMARK   26  A    between atoms: _59  and  _60
REMARK   27  A    between atoms: _60  and  _61
REMARK   28  A    between atoms: _65  and  _67
REMARK   29  A    between atoms: _67  and  _68
REMARK   30  A    between atoms: _67  and  _70
REMARK   31  A    between atoms: _70  and  _71
REMARK   32  A    between atoms: _71  and  _72
REMARK   33  A    between atoms: _75  and  _77
REMARK   34  A    between atoms: _77  and  _78
REMARK   35  A    between atoms: _77  and  _80
REMARK   36  A    between atoms: _80  and  _81
REMARK   37  A    between atoms: _84  and  _86
REMARK   38  A    between atoms: _86  and  _87
REMARK   39  A    between atoms: _86  and  _89
REMARK   40  A    between atoms: _89  and  _90
REMARK   41  A    between atoms: _95  and  _96
REMARK   42  A    between atoms: _98  and  _100
REMARK   43  A    between atoms: _100  and  _101
REMARK   44  A    between atoms: _100  and  _103
REMARK   45  A    between atoms: _103  and  _104
REMARK   46  A    between atoms: _107  and  _109
REMARK   47  A    between atoms: _109  and  _110
REMARK   48  A    between atoms: _109  and  _112
REMARK   49  A    between atoms: _112  and  _113
REMARK   50  A    between atoms: _116  and  _118
REMARK   51  A    between atoms: _118  and  _119
REMARK   52  A    between atoms: _118  and  _121
REMARK   53  A    between atoms: _124  and  _126
REMARK   54  A    between atoms: _126  and  _127
REMARK   55  A    between atoms: _126  and  _129
REMARK   56  A    between atoms: _129  and  _130
REMARK   57  A    between atoms: _130  and  _131
REMARK   58  A    between atoms: _131  and  _132
REMARK   59  A    between atoms: _141  and  _143
REMARK   60  A    between atoms: _143  and  _144
REMARK   61  A    between atoms: _143  and  _146
REMARK   62  A    between atoms: _146  and  _147
REMARK   63  A    between atoms: _152  and  _154
REMARK   64  A    between atoms: _154  and  _155
REMARK   65  A    between atoms: _154  and  _157
REMARK   66  A    between atoms: _157  and  _158
REMARK   67  A    between atoms: _158  and  _159
REMARK   68  A    between atoms: _162  and  _164
REMARK   69  A    between atoms: _164  and  _165
REMARK   70  A    between atoms: _164  and  _167
REMARK   71  A    between atoms: _167  and  _168
REMARK   72  A    between atoms: _168  and  _169
REMARK   73  A    between atoms: _169  and  _170
REMARK   74  A    between atoms: _170  and  _171
REMARK   75  A    between atoms: _175  and  _177
REMARK   76  A    between atoms: _177  and  _178
REMARK   77  A    between atoms: _180  and  _182
REMARK   78  A    between atoms: _182  and  _183
REMARK   79  A    between atoms: _182  and  _185
REMARK   80  A    between atoms: _188  and  _190
REMARK   81  A    between atoms: _190  and  _191
REMARK   82  A    between atoms: _190  and  _193
REMARK   83  A    between atoms: _193  and  _194
REMARK   84  A    between atoms: _196  and  _198
REMARK   85  A    between atoms: _198  and  _199
REMARK   86  A    between atoms: _198  and  _201
REMARK   87  A    between atoms: _201  and  _202
REMARK   88  A    between atoms: _204  and  _206
REMARK   89  A    between atoms: _206  and  _207
REMARK   90  A    between atoms: _206  and  _209
REMARK   91  A    between atoms: _209  and  _210
REMARK   92  A    between atoms: _216  and  _218
REMARK   93  A    between atoms: _218  and  _219
REMARK   94  A    between atoms: _218  and  _221
REMARK   95  A    between atoms: _221  and  _222
REMARK   96  A    between atoms: _225  and  _227
REMARK   97  A    between atoms: _227  and  _228
REMARK   98  A    between atoms: _227  and  _230
REMARK   99  A    between atoms: _230  and  _231
REMARK  100  A    between atoms: _234  and  _236
REMARK  101  A    between atoms: _236  and  _237
REMARK  102  A    between atoms: _236  and  _239
REMARK  103  A    between atoms: _239  and  _240
REMARK  104  A    between atoms: _243  and  _245
REMARK  105  A    between atoms: _245  and  _246
REMARK  106  A    between atoms: _245  and  _248
REMARK  107  A    between atoms: _248  and  _249
REMARK  108  A    between atoms: _249  and  _250
REMARK  109  A    between atoms: _252  and  _254
REMARK  110  A    between atoms: _254  and  _255
REMARK  111  A    between atoms: _254  and  _257
REMARK  112  A    between atoms: _257  and  _258
REMARK  113  A    between atoms: _264  and  _266
REMARK  114  A    between atoms: _266  and  _267
REMARK  115  A    between atoms: _266  and  _269
REMARK  116  A    between atoms: _271  and  _273
REMARK  117  A    between atoms: _273  and  _274
REMARK  118  A    between atoms: _277  and  _279
REMARK  119  A    between atoms: _279  and  _280
REMARK  120  A    between atoms: _282  and  _284
REMARK  121  A    between atoms: _284  and  _285
REMARK  122  A    between atoms: _284  and  _287
REMARK  123  A    between atoms: _287  and  _288
REMARK  124  A    between atoms: _288  and  _289
REMARK  125  A    between atoms: _292  and  _294
REMARK  126  A    between atoms: _294  and  _295
REMARK  127  A    between atoms: _294  and  _297
REMARK  128  A    between atoms: _297  and  _298
REMARK  129  A    between atoms: _301  and  _303
REMARK  130  A    between atoms: _303  and  _304
REMARK  131  A    between atoms: _307  and  _309
REMARK  132  A    between atoms: _309  and  _310
REMARK  133  A    between atoms: _309  and  _312
REMARK  134  A    between atoms: _312  and  _313
REMARK  135  A    between atoms: _313  and  _436
REMARK  136  A    between atoms: _314  and  _316
REMARK  137  A    between atoms: _316  and  _317
REMARK  138  A    between atoms: _316  and  _319
REMARK  139  A    between atoms: _319  and  _320
REMARK  140  A    between atoms: _320  and  _321
REMARK  141  A    between atoms: _326  and  _328
REMARK  142  A    between atoms: _328  and  _329
REMARK  143  A    between atoms: _331  and  _333
REMARK  144  A    between atoms: _333  and  _334
REMARK  145  A    between atoms: _333  and  _336
REMARK  146  A    between atoms: _336  and  _337
REMARK  147  A    between atoms: _340  and  _342
REMARK  148  A    between atoms: _342  and  _343
REMARK  149  A    between atoms: _342  and  _345
REMARK  150  A    between atoms: _345  and  _346
REMARK  151  A    between atoms: _348  and  _350
REMARK  152  A    between atoms: _350  and  _351
REMARK  153  A    between atoms: _353  and  _355
REMARK  154  A    between atoms: _355  and  _356
REMARK  155  A    between atoms: _358  and  _360
REMARK  156  A    between atoms: _360  and  _361
REMARK  157  A    between atoms: _360  and  _363
REMARK  158  A    between atoms: _363  and  _364
REMARK  159  A    between atoms: _369  and  _371
REMARK  160  A    between atoms: _371  and  _372
REMARK  161  A    between atoms: _371  and  _374
REMARK  162  A    between atoms: _374  and  _375
REMARK  163  A    between atoms: _378  and  _380
REMARK  164  A    between atoms: _380  and  _381
REMARK  165  A    between atoms: _380  and  _383
REMARK  166  A    between atoms: _386  and  _388
REMARK  167  A    between atoms: _388  and  _389
REMARK  168  A    between atoms: _388  and  _391
REMARK  169  A    between atoms: _391  and  _392
REMARK  170  A    between atoms: _394  and  _396
REMARK  171  A    between atoms: _396  and  _397
REMARK  172  A    between atoms: _396  and  _399
REMARK  173  A    between atoms: _399  and  _400
REMARK  174  A    between atoms: _410  and  _412
REMARK  175  A    between atoms: _412  and  _413
REMARK  176  A    between atoms: _415  and  _417
REMARK  177  A    between atoms: _417  and  _418
REMARK  178  A    between atoms: _417  and  _420
REMARK  179  A    between atoms: _420  and  _421
REMARK  180  A    between atoms: _421  and  _422
REMARK  181  A    between atoms: _425  and  _427
REMARK  182  A    between atoms: _427  and  _428
REMARK  183  A    between atoms: _430  and  _432
REMARK  184  A    between atoms: _432  and  _433
REMARK  185  A    between atoms: _432  and  _435
REMARK  186  A    between atoms: _435  and  _436
REMARK  187  A    between atoms: _437  and  _439
REMARK  188  A    between atoms: _439  and  _440
REMARK  189  A    between atoms: _443  and  _445
REMARK  190  A    between atoms: _445  and  _446
REMARK  191  A    between atoms: _445  and  _448
REMARK  192  A    between atoms: _448  and  _449
REMARK  193  A    between atoms: _449  and  _450
REMARK  194  A    between atoms: _450  and  _451
REMARK  195  A    between atoms: _460  and  _462
REMARK  196  A    between atoms: _462  and  _463
REMARK  197  A    between atoms: _462  and  _465
REMARK  198  A    between atoms: _465  and  _466
REMARK  199  A    between atoms: _466  and  _467
REMARK  200  A    between atoms: _467  and  _468
REMARK  201  A    between atoms: _468  and  _469
REMARK  202  A    between atoms: _473  and  _475
REMARK  203  A    between atoms: _475  and  _476
REMARK  204  A    between atoms: _475  and  _478
REMARK  205  A    between atoms: _478  and  _479
REMARK  206  A    between atoms: _484  and  _485
REMARK  207  A    between atoms: _487  and  _489
REMARK  208  A    between atoms: _489  and  _490
REMARK  209  A    between atoms: _492  and  _494
REMARK  210  A    between atoms: _494  and  _495
REMARK  211  A    between atoms: _494  and  _497
REMARK  212  A    between atoms: _497  and  _498
REMARK  213  A    between atoms: _501  and  _503
REMARK  214  A    between atoms: _503  and  _504
REMARK  215  A    between atoms: _503  and  _506
REMARK  216  A    between atoms: _506  and  _507
REMARK  217  A    between atoms: _512  and  _513
REMARK  218  A    between atoms: _515  and  _517
REMARK  219  A    between atoms: _517  and  _518
REMARK  220  A    between atoms: _517  and  _520
REMARK  221  A    between atoms: _520  and  _521
REMARK                            x       y       z     vdW  Elec       q    Type
REMARK                         _______ _______ _______ _____ _____    ______ ____
ROOT
ATOM      1  CA  VAL A   1       0.907   1.207  36.454  0.00  0.00    +0.133 C 
ENDROOT
BRANCH   1   2
ATOM      2  CB  VAL A   1       0.846   1.822  34.997  0.00  0.00    +0.023 C 
ATOM      3  CG2 VAL A   1       0.587   3.355  35.021  0.00  0.00    +0.002 C 
ATOM      4  CG1 VAL A   1       2.083   1.465  34.191  0.00  0.00    +0.002 C 
ENDBRANCH   1   2
BRANCH   1   5
ATOM      5  N   VAL A   1       2.174   1.397  37.130  0.00  0.00    -0.239 NA
ATOM      6  H   VAL A   1       3.005   0.853  36.822  0.00  0.00    +0.142 HD
ENDBRANCH   1   5
BRANCH   1   7
ATOM      7  C   VAL A   1       0.598  -0.252  36.380  0.00  0.00    +0.224 C 
ATOM      8  O   VAL A   1       1.404  -1.051  35.857  0.00  0.00    -0.287 OA
ENDBRANCH   1   7
TORSDOF 3
REMARK  Name = ../refined-set-2016/2xc4/2xc4_pocket.pdb
REMARK  221 active torsions:
REMARK  status: ('A' for Active; 'I' for Inactive)
REMARK    1  A    between atoms: _1  and  _5
REMARK    2  A    between atoms: _5  and  _6
REMARK    3  A    between atoms: _5  and  _8
REMARK    4  A    between atoms: _8  and  _9
REMARK    5  A    between atoms: _12  and  _14
REMARK    6  A    between atoms: _14  and  _15
REMARK    7  A    between atoms: _14  and  _17
REMARK    8  A    between atoms: _20  and  _22
REMARK    9  A    between atoms: _22  and  _23
REMARK   10  A    between atoms: _22  and  _25
REMARK   11  A    between atoms: _25  and  _26
REMARK   12  A    between atoms: _31  and  _33
REMARK   13  A    between atoms: _33  and  _34
REMARK   14  A    between atoms: _33  and  _36
REMARK   15  A    between atoms: _36  and  _37
REMARK   16  A    between atoms: _37  and  _38
REMARK   17  A    between atoms: _43  and  _45
REMARK   18  A    between atoms: _45  and  _46
REMARK   19  A    between atoms: _45  and  _48
REMARK   20  A    between atoms: _48  and  _49
REMARK   21  A    between atoms: _52  and  _54
REMARK   22  A    between atoms: _54  and  _55
REMARK   23  A    between atoms: _54  and  _57
REMARK   24  A    between atoms: _57  and  _58
REMARK   25  A    between atoms: _58  and  _59
REMARK   26  A    between atoms: _59  and  _60
REMARK   27  A    between atoms: _60  and  _61
REMARK   28  A    between atoms: _65  and  _67
REMARK   29  A    between atoms: _67  and  _68
REMARK   30  A    between atoms: _67  and  _70
REMARK   31  A    between atoms: _70  and  _71
REMARK   32  A    between atoms: _71  and  _72
REMARK   33  A    between atoms: _75  and  _77
REMARK   34  A    between atoms: _77  and  _78
REMARK   35  A    between atoms: _77  and  _80
REMARK   36  A    between atoms: _80  and  _81
REMARK   37  A    between atoms: _84  and  _86
REMARK   38  A    between atoms: _86  and  _87
REMARK   39  A    between atoms: _86  and  _89
REMARK   40  A    between atoms: _89  and  _90
REMARK   41  A    between atoms: _95  and  _96
REMARK   42  A    between atoms: _98  and  _100
REMARK   43  A    between atoms: _100  and  _101
REMARK   44  A    between atoms: _100  and  _103
REMARK   45  A    between atoms: _103  and  _104
REMARK   46  A    between atoms: _107  and  _109
REMARK   47  A    between atoms: _109  and  _110
REMARK   48  A    between atoms: _109  and  _112
REMARK   49  A    between atoms: _112  and  _113
REMARK   50  A    between atoms: _116  and  _118
REMARK   51  A    between atoms: _118  and  _119
REMARK   52  A    between atoms: _118  and  _121
REMARK   53  A    between atoms: _124  and  _126
REMARK   54  A    between atoms: _126  and  _127
REMARK   55  A    between atoms: _126  and  _129
REMARK   56  A    between atoms: _129  and  _130
REMARK   57  A    between atoms: _130  and  _131
REMARK   58  A    between atoms: _131  and  _132
REMARK   59  A    between atoms: _141  and  _143
REMARK   60  A    between atoms: _143  and  _144
REMARK   61  A    between atoms: _143  and  _146
REMARK   62  A    between atoms: _146  and  _147
REMARK   63  A    between atoms: _152  and  _154
REMARK   64  A    between atoms: _154  and  _155
REMARK   65  A    between atoms: _154  and  _157
REMARK   66  A    between atoms: _157  and  _158
REMARK   67  A    between atoms: _158  and  _159
REMARK   68  A    between atoms: _162  and  _164
REMARK   69  A    between atoms: _164  and  _165
REMARK   70  A    between atoms: _164  and  _167
REMARK   71  A    between atoms: _167  and  _168
REMARK   72  A    between atoms: _168  and  _169
REMARK   73  A    between atoms: _169  and  _170
REMARK   74  A    between atoms: _170  and  _171
REMARK   75  A    between atoms: _175  and  _177
REMARK   76  A    between atoms: _177  and  _178
REMARK   77  A    between atoms: _180  and  _182
REMARK   78  A    between atoms: _182  and  _183
REMARK   79  A    between atoms: _182  and  _185
REMARK   80  A    between atoms: _188  and  _190
REMARK   81  A    between atoms: _190  and  _191
REMARK   82  A    between atoms: _190  and  _193
REMARK   83  A    between atoms: _193  and  _194
REMARK   84  A    between atoms: _196  and  _198
REMARK   85  A    between atoms: _198  and  _199
REMARK   86  A    between atoms: _198  and  _201
REMARK   87  A    between atoms: _201  and  _202
REMARK   88  A    between atoms: _204  and  _206
REMARK   89  A    between atoms: _206  and  _207
REMARK   90  A    between atoms: _206  and  _209
REMARK   91  A    between atoms: _209  and  _210
REMARK   92  A    between atoms: _216  and  _218
REMARK   93  A    between atoms: _218  and  _219
REMARK   94  A    between atoms: _218  and  _221
REMARK   95  A    between atoms: _221  and  _222
REMARK   96  A    between atoms: _225  and  _227
REMARK   97  A    between atoms: _227  and  _228
REMARK   98  A    between atoms: _227  and  _230
REMARK   99  A    between atoms: _230  and  _231
REMARK  100  A    between atoms: _234  and  _236
REMARK  101  A    between atoms: _236  and  _237
REMARK  102  A    between atoms: _236  and  _239
REMARK  103  A    between atoms: _239  and  _240
REMARK  104  A    between atoms: _243  and  _245
REMARK  105  A    between atoms: _245  and  _246
REMARK  106  A    between atoms: _245  and  _248
REMARK  107  A    between atoms: _248  and  _249
REMARK  108  A    between atoms: _249  and  _250
REMARK  109  A    between atoms: _252  and  _254
REMARK  110  A    between atoms: _254  and  _255
REMARK  111  A    between atoms: _254  and  _257
REMARK  112  A    between atoms: _257  and  _258
REMARK  113  A    between atoms: _264  and  _266
REMARK  114  A    between atoms: _266  and  _267
REMARK  115  A    between atoms: _266  and  _269
REMARK  116  A    between atoms: _271  and  _273
REMARK  117  A    between atoms: _273  and  _274
REMARK  118  A    between atoms: _277  and  _279
REMARK  119  A    between atoms: _279  and  _280
REMARK  120  A    between atoms: _282  and  _284
REMARK  121  A    between atoms: _284  and  _285
REMARK  122  A    between atoms: _284  and  _287
REMARK  123  A    between atoms: _287  and  _288
REMARK  124  A    between atoms: _288  and  _289
REMARK  125  A    between atoms: _292  and  _294
REMARK  126  A    between atoms: _294  and  _295
REMARK  127  A    between atoms: _294  and  _297
REMARK  128  A    between atoms: _297  and  _298
REMARK  129  A    between atoms: _301  and  _303
REMARK  130  A    between atoms: _303  and  _304
REMARK  131  A    between atoms: _307  and  _309
REMARK  132  A    between atoms: _309  and  _310
REMARK  133  A    between atoms: _309  and  _312
REMARK  134  A    between atoms: _312  and  _313
REMARK  135  A    between atoms: _313  and  _436
REMARK  136  A    between atoms: _314  and  _316
REMARK  137  A    between atoms: _316  and  _317
REMARK  138  A    between atoms: _316  and  _319
REMARK  139  A    between atoms: _319  and  _320
REMARK  140  A    between atoms: _320  and  _321
REMARK  141  A    between atoms: _326  and  _328
REMARK  142  A    between atoms: _328  and  _329
REMARK  143  A    between atoms: _331  and  _333
REMARK  144  A    between atoms: _333  and  _334
REMARK  145  A    between atoms: _333  and  _336
REMARK  146  A    between atoms: _336  and  _337
REMARK  147  A    between atoms: _340  and  _342
REMARK  148  A    between atoms: _342  and  _343
REMARK  149  A    between atoms: _342  and  _345
REMARK  150  A    between atoms: _345  and  _346
REMARK  151  A    between atoms: _348  and  _350
REMARK  152  A    between atoms: _350  and  _351
REMARK  153  A    between atoms: _353  and  _355
REMARK  154  A    between atoms: _355  and  _356
REMARK  155  A    between atoms: _358  and  _360
REMARK  156  A    between atoms: _360  and  _361
REMARK  157  A    between atoms: _360  and  _363
REMARK  158  A    between atoms: _363  and  _364
REMARK  159  A    between atoms: _369  and  _371
REMARK  160  A    between atoms: _371  and  _372
REMARK  161  A    between atoms: _371  and  _374
REMARK  162  A    between atoms: _374  and  _375
REMARK  163  A    between atoms: _378  and  _380
REMARK  164  A    between atoms: _380  and  _381
REMARK  165  A    between atoms: _380  and  _383
REMARK  166  A    between atoms: _386  and  _388
REMARK  167  A    between atoms: _388  and  _389
REMARK  168  A    between atoms: _388  and  _391
REMARK  169  A    between atoms: _391  and  _392
REMARK  170  A    between atoms: _394  and  _396
REMARK  171  A    between atoms: _396  and  _397
REMARK  172  A    between atoms: _396  and  _399
REMARK  173  A    between atoms: _399  and  _400
REMARK  174  A    between atoms: _410  and  _412
REMARK  175  A    between atoms: _412  and  _413
REMARK  176  A    between atoms: _415  and  _417
REMARK  177  A    between atoms: _417  and  _418
REMARK  178  A    between atoms: _417  and  _420
REMARK  179  A    between atoms: _420  and  _421
REMARK  180  A    between atoms: _421  and  _422
REMARK  181  A    between atoms: _425  and  _427
REMARK  182  A    between atoms: _427  and  _428
REMARK  183  A    between atoms: _430  and  _432
REMARK  184  A    between atoms: _432  and  _433
REMARK  185  A    between atoms: _432  and  _435
REMARK  186  A    between atoms: _435  and  _436
REMARK  187  A    between atoms: _437  and  _439
REMARK  188  A    between atoms: _439  and  _440
REMARK  189  A    between atoms: _443  and  _445
REMARK  190  A    between atoms: _445  and  _446
REMARK  191  A    between atoms: _445  and  _448
REMARK  192  A    between atoms: _448  and  _449
REMARK  193  A    between atoms: _449  and  _450
REMARK  194  A    between atoms: _450  and  _451
REMARK  195  A    between atoms: _460  and  _462
REMARK  196  A    between atoms: _462  and  _463
REMARK  197  A    between atoms: _462  and  _465
REMARK  198  A    between atoms: _465  and  _466
REMARK  199  A    between atoms: _466  and  _467
REMARK  200  A    between atoms: _467  and  _468
REMARK  201  A    between atoms: _468  and  _469
REMARK  202  A    between atoms: _473  and  _475
REMARK  203  A    between atoms: _475  and  _476
REMARK  204  A    between atoms: _475  and  _478
REMARK  205  A    between atoms: _478  and  _479
REMARK  206  A    between atoms: _484  and  _485
REMARK  207  A    between atoms: _487  and  _489
REMARK  208  A    between atoms: _489  and  _490
REMARK  209  A    between atoms: _492  and  _494
REMARK  210  A    between atoms: _494  and  _495
REMARK  211  A    between atoms: _494  and  _497
REMARK  212  A    between atoms: _497  and  _498
REMARK  213  A    between atoms: _501  and  _503
REMARK  214  A    between atoms: _503  and  _504
REMARK  215  A    between atoms: _503  and  _506
REMARK  216  A    between atoms: _506  and  _507
REMARK  217  A    between atoms: _512  and  _513
REMARK  218  A    between atoms: _515  and  _517
REMARK  219  A    between atoms: _517  and  _518
REMARK  220  A    between atoms: _517  and  _520
REMARK  221  A    between atoms: _520  and  _521
REMARK                            x       y       z     vdW  Elec       q    Type
REMARK                         _______ _______ _______ _____ _____    ______ ____
ROOT
ATOM      1  C   PHE A   3     -10.363   0.632  19.316  0.00  0.00    +0.241 C 
ATOM      2  O   PHE A   3     -10.281   0.071  20.412  0.00  0.00    -0.273 OA
ATOM      3  N   ILE A   4     -10.059   0.021  18.174  0.00  0.00    -0.297 N 
ATOM      4  H   ILE A   4     -10.148   0.528  17.270  0.00  0.00    +0.150 HD
ENDROOT
BRANCH   3   5
ATOM      5  CA  ILE A   4      -9.598  -1.369  18.195  0.00  0.00    +0.149 C 
BRANCH   5   6
ATOM      6  C   ILE A   4      -8.267  -1.491  18.943  0.00  0.00    +0.241 C 
ATOM      7  N   ILE A   5      -8.217  -2.453  19.856  0.00  0.00    -0.297 N 
ATOM      8  H   ILE A   5      -9.088  -2.973  20.086  0.00  0.00    +0.150 HD
ATOM      9  O   ILE A   4      -7.333  -0.704  18.710  0.00  0.00    -0.273 OA
BRANCH   7  10
ATOM     10  CA  ILE A   5      -6.980  -2.806  20.548  0.00  0.00    +0.149 C 
BRANCH  10  11
ATOM     11  C   ILE A   5      -6.409  -4.018  19.852  0.00  0.00    +0.241 C 
ATOM     12  O   ILE A   5      -6.956  -5.126  19.936  0.00  0.00    -0.273 OA
ATOM     13  N   THR A   6      -5.321  -3.808  19.120  0.00  0.00    -0.296 N 
ATOM     14  H   THR A   6      -4.907  -2.855  19.082  0.00  0.00    +0.150 HD
BRANCH  13  15
ATOM     15  CA  THR A   6      -4.689  -4.902  18.360  0.00  0.00    +0.164 C 
BRANCH  15  16
ATOM     16  CB  THR A   6      -3.835  -4.341  17.218  0.00  0.00    +0.136 C 
ATOM     17  CG2 THR A   6      -4.666  -3.413  16.361  0.00  0.00    +0.034 C 
BRANCH  16  18
ATOM     18  OG1 THR A   6      -2.702  -3.607  17.749  0.00  0.00    -0.382 OA
ATOM     19  HG1 THR A   6      -2.161  -3.251  17.000  0.00  0.00    +0.210 HD
ENDBRANCH  16  18
ENDBRANCH  15  16
BRANCH  15  20
ATOM     20  C   THR A   6      -3.810  -5.731  19.275  0.00  0.00    +0.229 C 
ATOM     21  O   THR A   6      -3.573  -5.342  20.416  0.00  0.00    -0.286 OA
ENDBRANCH  15  20
ENDBRANCH  13  15
ENDBRANCH  10  11
BRANCH  10  22
ATOM     22  CB  ILE A   5      -7.198  -3.107  22.061  0.00  0.00    +0.027 C 
ATOM     23  CG2 ILE A   5      -5.866  -3.483  22.735  0.00  0.00    +0.002 C 
BRANCH  22  24
ATOM     24  CG1 ILE A   5      -7.925  -1.955  22.760  0.00  0.00    +0.002 C 
ATOM     25  CD1 ILE A   5      -7.224  -0.550  22.632  0.00  0.00    +0.000 C 
ENDBRANCH  22  24
ENDBRANCH  10  22
ENDBRANCH   7  10
ENDBRANCH   5   6
BRANCH   5  26
ATOM     26  CB  ILE A   4      -9.518  -1.981  16.789  0.00  0.00    +0.027 C 
ATOM     27  CG2 ILE A   4      -8.713  -3.277  16.783  0.00  0.00    +0.002 C 
BRANCH  26  28
ATOM     28  CG1 ILE A   4     -10.928  -2.225  16.248  0.00  0.00    +0.002 C 
ATOM     29  CD1 ILE A   4     -10.947  -2.625  14.776  0.00  0.00    +0.000 C 
ENDBRANCH  26  28
ENDBRANCH   5  26
ENDBRANCH   3   5
BRANCH   1  30
ATOM     30  CA  PHE A   3     -10.843   2.070  19.234  0.00  0.00    +0.153 C 
BRANCH  30  32
ATOM     31  C   SER A   2     -12.882   2.916  20.304  0.00  0.00    +0.243 C 
ATOM     32  N   PHE A   3     -11.667   2.380  20.402  0.00  0.00    -0.297 N 
ATOM     33  H   PHE A   3     -11.288   2.173  21.348  0.00  0.00    +0.150 HD
ATOM     34  O   SER A   2     -13.455   3.120  19.224  0.00  0.00    -0.273 OA
BRANCH  31  35
ATOM     35  CA  SER A   2     -13.566   3.262  21.613  0.00  0.00    +0.178 C 
BRANCH  35  37
ATOM     36  C   SER A   1     -12.797   1.566  23.241  0.00  0.00    +0.241 C 
ATOM     37  N   SER A   2     -12.781   2.820  22.784  0.00  0.00    -0.295 N 
ATOM     38  H   SER A   2     -12.188   3.519  23.275  0.00  0.00    +0.150 HD
ATOM     39  O   SER A   1     -13.513   0.672  22.783  0.00  0.00    -0.274 OA
BRANCH  36  40
ATOM     40  CA  SER A   1     -11.829   1.252  24.376  0.00  0.00    +0.174 C 
BRANCH  40  41
ATOM     41  N   SER A   1     -12.418   0.401  25.405  0.00  0.00    -0.236 NA
ATOM     42  H   SER A   1     -12.486  -0.624  25.244  0.00  0.00    +0.142 HD
ENDBRANCH  40  41
BRANCH  40  43
ATOM     43  CB  SER A   1     -10.601   0.569  23.780  0.00  0.00    +0.163 C 
BRANCH  43  44
ATOM     44  OG  SER A   1     -10.024   1.401  22.786  0.00  0.00    -0.380 OA
ATOM     45  H   SER A   1      -9.755   2.262  23.194  0.00  0.00    +0.211 HD
ENDBRANCH  43  44
ENDBRANCH  40  43
ENDBRANCH  36  40
ENDBRANCH  35  37
BRANCH  35  46
ATOM     46  CB  SER A   2     -13.825   4.766  21.658  0.00  0.00    +0.166 C 
BRANCH  46  47
ATOM     47  OG  SER A   2     -14.465   5.111  22.871  0.00  0.00    -0.380 OA
ATOM     48  H   SER A   2     -13.885   4.857  23.632  0.00  0.00    +0.211 HD
ENDBRANCH  46  47
ENDBRANCH  35  46
ENDBRANCH  31  35
ENDBRANCH  30  32
BRANCH  30  49
ATOM     49  CB  PHE A   3      -9.641   3.021  19.181  0.00  0.00    +0.055 C 
BRANCH  49  50
ATOM     50  CG  PHE A   3     -10.017   4.477  19.097  0.00  0.00    -0.020 A 
ATOM     51  CD2 PHE A   3     -10.212   5.233  20.258  0.00  0.00    -0.004 A 
ATOM     52  CE2 PHE A   3     -10.548   6.582  20.195  0.00  0.00    -0.000 A 
ATOM     53  CZ  PHE A   3     -10.715   7.197  18.939  0.00  0.00    -0.000 A 
ATOM     54  CE1 PHE A   3     -10.522   6.455  17.774  0.00  0.00    -0.000 A 
ATOM     55  CD1 PHE A   3     -10.170   5.100  17.853  0.00  0.00    -0.004 A 
ENDBRANCH  49  50
ENDBRANCH  30  49
ENDBRANCH   1  30
TORSDOF 24
REMARK  Name = ../refined-set-2016/2xc4/2xc4_pocket.pdb
REMARK  221 active torsions:
REMARK  status: ('A' for Active; 'I' for Inactive)
REMARK    1  A    between atoms: _1  and  _5
REMARK    2  A    between atoms: _5  and  _6
REMARK    3  A    between atoms: _5  and  _8
REMARK    4  A    between atoms: _8  and  _9
REMARK    5  A    between atoms: _12  and  _14
REMARK    6  A    between atoms: _14  and  _15
REMARK    7  A    between atoms: _14  and  _17
REMARK    8  A    between atoms: _20  and  _22
REMARK    9  A    between atoms: _22  and  _23
REMARK   10  A    between atoms: _22  and  _25
REMARK   11  A    between atoms: _25  and  _26
REMARK   12  A    between atoms: _31  and  _33
REMARK   13  A    between atoms: _33  and  _34
REMARK   14  A    between atoms: _33  and  _36
REMARK   15  A    between atoms: _36  and  _37
REMARK   16  A    between atoms: _37  and  _38
REMARK   17  A    between atoms: _43  and  _45
REMARK   18  A    between atoms: _45  and  _46
REMARK   19  A    between atoms: _45  and  _48
REMARK   20  A    between atoms: _48  and  _49
REMARK   21  A    between atoms: _52  and  _54
REMARK   22  A    between atoms: _54  and  _55
REMARK   23  A    between atoms: _54  and  _57
REMARK   24  A    between atoms: _57  and  _58
REMARK   25  A    between atoms: _58  and  _59
REMARK   26  A    between atoms: _59  and  _60
REMARK   27  A    between atoms: _60  and  _61
REMARK   28  A    between atoms: _65  and  _67
REMARK   29  A    between atoms: _67  and  _68
REMARK   30  A    between atoms: _67  and  _70
REMARK   31  A    between atoms: _70  and  _71
REMARK   32  A    between atoms: _71  and  _72
REMARK   33  A    between atoms: _75  and  _77
REMARK   34  A    between atoms: _77  and  _78
REMARK   35  A    between atoms: _77  and  _80
REMARK   36  A    between atoms: _80  and  _81
REMARK   37  A    between atoms: _84  and  _86
REMARK   38  A    between atoms: _86  and  _87
REMARK   39  A    between atoms: _86  and  _89
REMARK   40  A    between atoms: _89  and  _90
REMARK   41  A    between atoms: _95  and  _96
REMARK   42  A    between atoms: _98  and  _100
REMARK   43  A    between atoms: _100  and  _101
REMARK   44  A    between atoms: _100  and  _103
REMARK   45  A    between atoms: _103  and  _104
REMARK   46  A    between atoms: _107  and  _109
REMARK   47  A    between atoms: _109  and  _110
REMARK   48  A    between atoms: _109  and  _112
REMARK   49  A    between atoms: _112  and  _113
REMARK   50  A    between atoms: _116  and  _118
REMARK   51  A    between atoms: _118  and  _119
REMARK   52  A    between atoms: _118  and  _121
REMARK   53  A    between atoms: _124  and  _126
REMARK   54  A    between atoms: _126  and  _127
REMARK   55  A    between atoms: _126  and  _129
REMARK   56  A    between atoms: _129  and  _130
REMARK   57  A    between atoms: _130  and  _131
REMARK   58  A    between atoms: _131  and  _132
REMARK   59  A    between atoms: _141  and  _143
REMARK   60  A    between atoms: _143  and  _144
REMARK   61  A    between atoms: _143  and  _146
REMARK   62  A    between atoms: _146  and  _147
REMARK   63  A    between atoms: _152  and  _154
REMARK   64  A    between atoms: _154  and  _155
REMARK   65  A    between atoms: _154  and  _157
REMARK   66  A    between atoms: _157  and  _158
REMARK   67  A    between atoms: _158  and  _159
REMARK   68  A    between atoms: _162  and  _164
REMARK   69  A    between atoms: _164  and  _165
REMARK   70  A    between atoms: _164  and  _167
REMARK   71  A    between atoms: _167  and  _168
REMARK   72  A    between atoms: _168  and  _169
REMARK   73  A    between atoms: _169  and  _170
REMARK   74  A    between atoms: _170  and  _171
REMARK   75  A    between atoms: _175  and  _177
REMARK   76  A    between atoms: _177  and  _178
REMARK   77  A    between atoms: _180  and  _182
REMARK   78  A    between atoms: _182  and  _183
REMARK   79  A    between atoms: _182  and  _185
REMARK   80  A    between atoms: _188  and  _190
REMARK   81  A    between atoms: _190  and  _191
REMARK   82  A    between atoms: _190  and  _193
REMARK   83  A    between atoms: _193  and  _194
REMARK   84  A    between atoms: _196  and  _198
REMARK   85  A    between atoms: _198  and  _199
REMARK   86  A    between atoms: _198  and  _201
REMARK   87  A    between atoms: _201  and  _202
REMARK   88  A    between atoms: _204  and  _206
REMARK   89  A    between atoms: _206  and  _207
REMARK   90  A    between atoms: _206  and  _209
REMARK   91  A    between atoms: _209  and  _210
REMARK   92  A    between atoms: _216  and  _218
REMARK   93  A    between atoms: _218  and  _219
REMARK   94  A    between atoms: _218  and  _221
REMARK   95  A    between atoms: _221  and  _222
REMARK   96  A    between atoms: _225  and  _227
REMARK   97  A    between atoms: _227  and  _228
REMARK   98  A    between atoms: _227  and  _230
REMARK   99  A    between atoms: _230  and  _231
REMARK  100  A    between atoms: _234  and  _236
REMARK  101  A    between atoms: _236  and  _237
REMARK  102  A    between atoms: _236  and  _239
REMARK  103  A    between atoms: _239  and  _240
REMARK  104  A    between atoms: _243  and  _245
REMARK  105  A    between atoms: _245  and  _246
REMARK  106  A    between atoms: _245  and  _248
REMARK  107  A    between atoms: _248  and  _249
REMARK  108  A    between atoms: _249  and  _250
REMARK  109  A    between atoms: _252  and  _254
REMARK  110  A    between atoms: _254  and  _255
REMARK  111  A    between atoms: _254  and  _257
REMARK  112  A    between atoms: _257  and  _258
REMARK  113  A    between atoms: _264  and  _266
REMARK  114  A    between atoms: _266  and  _267
REMARK  115  A    between atoms: _266  and  _269
REMARK  116  A    between atoms: _271  and  _273
REMARK  117  A    between atoms: _273  and  _274
REMARK  118  A    between atoms: _277  and  _279
REMARK  119  A    between atoms: _279  and  _280
REMARK  120  A    between atoms: _282  and  _284
REMARK  121  A    between atoms: _284  and  _285
REMARK  122  A    between atoms: _284  and  _287
REMARK  123  A    between atoms: _287  and  _288
REMARK  124  A    between atoms: _288  and  _289
REMARK  125  A    between atoms: _292  and  _294
REMARK  126  A    between atoms: _294  and  _295
REMARK  127  A    between atoms: _294  and  _297
REMARK  128  A    between atoms: _297  and  _298
REMARK  129  A    between atoms: _301  and  _303
REMARK  130  A    between atoms: _303  and  _304
REMARK  131  A    between atoms: _307  and  _309
REMARK  132  A    between atoms: _309  and  _310
REMARK  133  A    between atoms: _309  and  _312
REMARK  134  A    between atoms: _312  and  _313
REMARK  135  A    between atoms: _313  and  _436
REMARK  136  A    between atoms: _314  and  _316
REMARK  137  A    between atoms: _316  and  _317
REMARK  138  A    between atoms: _316  and  _319
REMARK  139  A    between atoms: _319  and  _320
REMARK  140  A    between atoms: _320  and  _321
REMARK  141  A    between atoms: _326  and  _328
REMARK  142  A    between atoms: _328  and  _329
REMARK  143  A    between atoms: _331  and  _333
REMARK  144  A    between atoms: _333  and  _334
REMARK  145  A    between atoms: _333  and  _336
REMARK  146  A    between atoms: _336  and  _337
REMARK  147  A    between atoms: _340  and  _342
REMARK  148  A    between atoms: _342  and  _343
REMARK  149  A    between atoms: _342  and  _345
REMARK  150  A    between atoms: _345  and  _346
REMARK  151  A    between atoms: _348  and  _350
REMARK  152  A    between atoms: _350  and  _351
REMARK  153  A    between atoms: _353  and  _355
REMARK  154  A    between atoms: _355  and  _356
REMARK  155  A    between atoms: _358  and  _360
REMARK  156  A    between atoms: _360  and  _361
REMARK  157  A    between atoms: _360  and  _363
REMARK  158  A    between atoms: _363  and  _364
REMARK  159  A    between atoms: _369  and  _371
REMARK  160  A    between atoms: _371  and  _372
REMARK  161  A    between atoms: _371  and  _374
REMARK  162  A    between atoms: _374  and  _375
REMARK  163  A    between atoms: _378  and  _380
REMARK  164  A    between atoms: _380  and  _381
REMARK  165  A    between atoms: _380  and  _383
REMARK  166  A    between atoms: _386  and  _388
REMARK  167  A    between atoms: _388  and  _389
REMARK  168  A    between atoms: _388  and  _391
REMARK  169  A    between atoms: _391  and  _392
REMARK  170  A    between atoms: _394  and  _396
REMARK  171  A    between atoms: _396  and  _397
REMARK  172  A    between atoms: _396  and  _399
REMARK  173  A    between atoms: _399  and  _400
REMARK  174  A    between atoms: _410  and  _412
REMARK  175  A    between atoms: _412  and  _413
REMARK  176  A    between atoms: _415  and  _417
REMARK  177  A    between atoms: _417  and  _418
REMARK  178  A    between atoms: _417  and  _420
REMARK  179  A    between atoms: _420  and  _421
REMARK  180  A    between atoms: _421  and  _422
REMARK  181  A    between atoms: _425  and  _427
REMARK  182  A    between atoms: _427  and  _428
REMARK  183  A    between atoms: _430  and  _432
REMARK  184  A    between atoms: _432  and  _433
REMARK  185  A    between atoms: _432  and  _435
REMARK  186  A    between atoms: _435  and  _436
REMARK  187  A    between atoms: _437  and  _439
REMARK  188  A    between atoms: _439  and  _440
REMARK  189  A    between atoms: _443  and  _445
REMARK  190  A    between atoms: _445  and  _446
REMARK  191  A    between atoms: _445  and  _448
REMARK  192  A    between atoms: _448  and  _449
REMARK  193  A    between atoms: _449  and  _450
REMARK  194  A    between atoms: _450  and  _451
REMARK  195  A    between atoms: _460  and  _462
REMARK  196  A    between atoms: _462  and  _463
REMARK  197  A    between atoms: _462  and  _465
REMARK  198  A    between atoms: _465  and  _466
REMARK  199  A    between atoms: _466  and  _467
REMARK  200  A    between atoms: _467  and  _468
REMARK  201  A    between atoms: _468  and  _469
REMARK  202  A    between atoms: _473  and  _475
REMARK  203  A    between atoms: _475  and  _476
REMARK  204  A    between atoms: _475  and  _478
REMARK  205  A    between atoms: _478  and  _479
REMARK  206  A    between atoms: _484  and  _485
REMARK  207  A    between atoms: _487  and  _489
REMARK  208  A    between atoms: _489  and  _490
REMARK  209  A    between atoms: _492  and  _494
REMARK  210  A    between atoms: _494  and  _495
REMARK  211  A    between atoms: _494  and  _497
REMARK  212  A    between atoms: _497  and  _498
REMARK  213  A    between atoms: _501  and  _503
REMARK  214  A    between atoms: _503  and  _504
REMARK  215  A    between atoms: _503  and  _506
REMARK  216  A    between atoms: _506  and  _507
REMARK  217  A    between atoms: _512  and  _513
REMARK  218  A    between atoms: _515  and  _517
REMARK  219  A    between atoms: _517  and  _518
REMARK  220  A    between atoms: _517  and  _520
REMARK  221  A    between atoms: _520  and  _521
REMARK                            x       y       z     vdW  Elec       q    Type
REMARK                         _______ _______ _______ _____ _____    ______ ____
ROOT
ATOM      1  C   PHE A   2      -2.099  -2.361  26.610  0.00  0.00    +0.241 C 
ATOM      2  N   CYS A   3      -3.027  -2.604  27.534  0.00  0.00    -0.296 N 
ATOM      3  H   CYS A   3      -3.418  -3.565  27.605  0.00  0.00    +0.150 HD
ATOM      4  O   PHE A   2      -1.598  -1.224  26.400  0.00  0.00    -0.273 OA
ENDROOT
BRANCH   2   5
ATOM      5  CA  CYS A   3      -3.519  -1.583  28.449  0.00  0.00    +0.160 C 
BRANCH   5   6
ATOM      6  C   CYS A   3      -2.759  -1.644  29.757  0.00  0.00    +0.242 C 
ATOM      7  N   ALA A   4      -2.506  -0.484  30.341  0.00  0.00    -0.297 N 
ATOM      8  H   ALA A   4      -2.648   0.402  29.816  0.00  0.00    +0.150 HD
ATOM      9  O   CYS A   3      -2.434  -2.722  30.250  0.00  0.00    -0.273 OA
BRANCH   7  10
ATOM     10  CA  ALA A   4      -2.023  -0.444  31.737  0.00  0.00    +0.149 C 
ATOM     11  CB  ALA A   4      -0.481  -0.547  31.816  0.00  0.00    +0.031 C 
BRANCH  10  12
ATOM     12  C   ALA A   4      -2.524   0.824  32.403  0.00  0.00    +0.241 C 
ATOM     13  N   GLY A   5      -2.583   0.795  33.732  0.00  0.00    -0.296 N 
ATOM     14  H   GLY A   5      -2.264  -0.054  34.241  0.00  0.00    +0.150 HD
ATOM     15  O   ALA A   4      -2.890   1.790  31.738  0.00  0.00    -0.273 OA
BRANCH  13  16
ATOM     16  CA  GLY A   5      -3.077   1.911  34.469  0.00  0.00    +0.163 C 
BRANCH  16  17
ATOM     17  C   GLY A   5      -4.256   1.534  35.318  0.00  0.00    +0.229 C 
ATOM     18  O   GLY A   5      -4.333   0.422  35.834  0.00  0.00    -0.286 OA
ENDBRANCH  16  17
ENDBRANCH  13  16
ENDBRANCH  10  12
ENDBRANCH   7  10
ENDBRANCH   5   6
BRANCH   5  19
ATOM     19  CB  CYS A   3      -5.000  -1.811  28.800  0.00  0.00    +0.098 C 
ATOM     20  SG  CYS A   3      -6.251  -1.070  27.727  0.00  0.00    -0.080 S 
ENDBRANCH   5  19
ENDBRANCH   2   5
BRANCH   1  21
ATOM     21  CA  PHE A   2      -1.675  -3.570  25.767  0.00  0.00    +0.153 C 
BRANCH  21  23
ATOM     22  C   MET A   1      -1.392  -3.794  23.349  0.00  0.00    +0.238 C 
ATOM     23  N   PHE A   2      -1.119  -3.128  24.480  0.00  0.00    -0.297 N 
ATOM     24  H   PHE A   2      -0.506  -2.288  24.446  0.00  0.00    +0.150 HD
ATOM     25  O   MET A   1      -1.982  -4.867  23.336  0.00  0.00    -0.274 OA
BRANCH  22  26
ATOM     26  CA  MET A   1      -1.051  -3.112  22.045  0.00  0.00    +0.146 C 
BRANCH  26  27
ATOM     27  N   MET A   1      -0.750  -4.128  21.034  0.00  0.00    -0.238 NA
ATOM     28  H   MET A   1      -1.386  -4.944  20.928  0.00  0.00    +0.142 HD
ENDBRANCH  26  27
BRANCH  26  29
ATOM     29  CB  MET A   1      -2.288  -2.316  21.627  0.00  0.00    +0.038 C 
BRANCH  29  30
ATOM     30  CG  MET A   1      -2.212  -1.615  20.249  0.00  0.00    +0.060 C 
BRANCH  30  31
ATOM     31  SD  MET A   1      -3.706  -0.689  19.959  0.00  0.00    -0.139 S 
ATOM     32  CE  MET A   1      -3.403  -0.231  18.235  0.00  0.00    +0.069 C 
ENDBRANCH  30  31
ENDBRANCH  29  30
ENDBRANCH  26  29
ENDBRANCH  22  26
ENDBRANCH  21  23
BRANCH  21  33
ATOM     33  CB  PHE A   2      -0.697  -4.500  26.517  0.00  0.00    +0.055 C 
BRANCH  33  34
ATOM     34  CG  PHE A   2       0.505  -3.801  27.084  0.00  0.00    -0.020 A 
ATOM     35  CD2 PHE A   2       0.502  -3.350  28.393  0.00  0.00    -0.004 A 
ATOM     36  CE2 PHE A   2       1.627  -2.702  28.921  0.00  0.00    -0.000 A 
ATOM     37  CZ  PHE A   2       2.761  -2.512  28.143  0.00  0.00    -0.000 A 
ATOM     38  CE1 PHE A   2       2.780  -2.979  26.845  0.00  0.00    -0.000 A 
ATOM     39  CD1 PHE A   2       1.653  -3.629  26.326  0.00  0.00    -0.004 A 
ENDBRANCH  33  34
ENDBRANCH  21  33
ENDBRANCH   1  21
TORSDOF 16
REMARK  Name = ../refined-set-2016/2xc4/2xc4_pocket.pdb
REMARK  221 active torsions:
REMARK  status: ('A' for Active; 'I' for Inactive)
REMARK    1  A    between atoms: _1  and  _5
REMARK    2  A    between atoms: _5  and  _6
REMARK    3  A    between atoms: _5  and  _8
REMARK    4  A    between atoms: _8  and  _9
REMARK    5  A    between atoms: _12  and  _14
REMARK    6  A    between atoms: _14  and  _15
REMARK    7  A    between atoms: _14  and  _17
REMARK    8  A    between atoms: _20  and  _22
REMARK    9  A    between atoms: _22  and  _23
REMARK   10  A    between atoms: _22  and  _25
REMARK   11  A    between atoms: _25  and  _26
REMARK   12  A    between atoms: _31  and  _33
REMARK   13  A    between atoms: _33  and  _34
REMARK   14  A    between atoms: _33  and  _36
REMARK   15  A    between atoms: _36  and  _37
REMARK   16  A    between atoms: _37  and  _38
REMARK   17  A    between atoms: _43  and  _45
REMARK   18  A    between atoms: _45  and  _46
REMARK   19  A    between atoms: _45  and  _48
REMARK   20  A    between atoms: _48  and  _49
REMARK   21  A    between atoms: _52  and  _54
REMARK   22  A    between atoms: _54  and  _55
REMARK   23  A    between atoms: _54  and  _57
REMARK   24  A    between atoms: _57  and  _58
REMARK   25  A    between atoms: _58  and  _59
REMARK   26  A    between atoms: _59  and  _60
REMARK   27  A    between atoms: _60  and  _61
REMARK   28  A    between atoms: _65  and  _67
REMARK   29  A    between atoms: _67  and  _68
REMARK   30  A    between atoms: _67  and  _70
REMARK   31  A    between atoms: _70  and  _71
REMARK   32  A    between atoms: _71  and  _72
REMARK   33  A    between atoms: _75  and  _77
REMARK   34  A    between atoms: _77  and  _78
REMARK   35  A    between atoms: _77  and  _80
REMARK   36  A    between atoms: _80  and  _81
REMARK   37  A    between atoms: _84  and  _86
REMARK   38  A    between atoms: _86  and  _87
REMARK   39  A    between atoms: _86  and  _89
REMARK   40  A    between atoms: _89  and  _90
REMARK   41  A    between atoms: _95  and  _96
REMARK   42  A    between atoms: _98  and  _100
REMARK   43  A    between atoms: _100  and  _101
REMARK   44  A    between atoms: _100  and  _103
REMARK   45  A    between atoms: _103  and  _104
REMARK   46  A    between atoms: _107  and  _109
REMARK   47  A    between atoms: _109  and  _110
REMARK   48  A    between atoms: _109  and  _112
REMARK   49  A    between atoms: _112  and  _113
REMARK   50  A    between atoms: _116  and  _118
REMARK   51  A    between atoms: _118  and  _119
REMARK   52  A    between atoms: _118  and  _121
REMARK   53  A    between atoms: _124  and  _126
REMARK   54  A    between atoms: _126  and  _127
REMARK   55  A    between atoms: _126  and  _129
REMARK   56  A    between atoms: _129  and  _130
REMARK   57  A    between atoms: _130  and  _131
REMARK   58  A    between atoms: _131  and  _132
REMARK   59  A    between atoms: _141  and  _143
REMARK   60  A    between atoms: _143  and  _144
REMARK   61  A    between atoms: _143  and  _146
REMARK   62  A    between atoms: _146  and  _147
REMARK   63  A    between atoms: _152  and  _154
REMARK   64  A    between atoms: _154  and  _155
REMARK   65  A    between atoms: _154  and  _157
REMARK   66  A    between atoms: _157  and  _158
REMARK   67  A    between atoms: _158  and  _159
REMARK   68  A    between atoms: _162  and  _164
REMARK   69  A    between atoms: _164  and  _165
REMARK   70  A    between atoms: _164  and  _167
REMARK   71  A    between atoms: _167  and  _168
REMARK   72  A    between atoms: _168  and  _169
REMARK   73  A    between atoms: _169  and  _170
REMARK   74  A    between atoms: _170  and  _171
REMARK   75  A    between atoms: _175  and  _177
REMARK   76  A    between atoms: _177  and  _178
REMARK   77  A    between atoms: _180  and  _182
REMARK   78  A    between atoms: _182  and  _183
REMARK   79  A    between atoms: _182  and  _185
REMARK   80  A    between atoms: _188  and  _190
REMARK   81  A    between atoms: _190  and  _191
REMARK   82  A    between atoms: _190  and  _193
REMARK   83  A    between atoms: _193  and  _194
REMARK   84  A    between atoms: _196  and  _198
REMARK   85  A    between atoms: _198  and  _199
REMARK   86  A    between atoms: _198  and  _201
REMARK   87  A    between atoms: _201  and  _202
REMARK   88  A    between atoms: _204  and  _206
REMARK   89  A    between atoms: _206  and  _207
REMARK   90  A    between atoms: _206  and  _209
REMARK   91  A    between atoms: _209  and  _210
REMARK   92  A    between atoms: _216  and  _218
REMARK   93  A    between atoms: _218  and  _219
REMARK   94  A    between atoms: _218  and  _221
REMARK   95  A    between atoms: _221  and  _222
REMARK   96  A    between atoms: _225  and  _227
REMARK   97  A    between atoms: _227  and  _228
REMARK   98  A    between atoms: _227  and  _230
REMARK   99  A    between atoms: _230  and  _231
REMARK  100  A    between atoms: _234  and  _236
REMARK  101  A    between atoms: _236  and  _237
REMARK  102  A    between atoms: _236  and  _239
REMARK  103  A    between atoms: _239  and  _240
REMARK  104  A    between atoms: _243  and  _245
REMARK  105  A    between atoms: _245  and  _246
REMARK  106  A    between atoms: _245  and  _248
REMARK  107  A    between atoms: _248  and  _249
REMARK  108  A    between atoms: _249  and  _250
REMARK  109  A    between atoms: _252  and  _254
REMARK  110  A    between atoms: _254  and  _255
REMARK  111  A    between atoms: _254  and  _257
REMARK  112  A    between atoms: _257  and  _258
REMARK  113  A    between atoms: _264  and  _266
REMARK  114  A    between atoms: _266  and  _267
REMARK  115  A    between atoms: _266  and  _269
REMARK  116  A    between atoms: _271  and  _273
REMARK  117  A    between atoms: _273  and  _274
REMARK  118  A    between atoms: _277  and  _279
REMARK  119  A    between atoms: _279  and  _280
REMARK  120  A    between atoms: _282  and  _284
REMARK  121  A    between atoms: _284  and  _285
REMARK  122  A    between atoms: _284  and  _287
REMARK  123  A    between atoms: _287  and  _288
REMARK  124  A    between atoms: _288  and  _289
REMARK  125  A    between atoms: _292  and  _294
REMARK  126  A    between atoms: _294  and  _295
REMARK  127  A    between atoms: _294  and  _297
REMARK  128  A    between atoms: _297  and  _298
REMARK  129  A    between atoms: _301  and  _303
REMARK  130  A    between atoms: _303  and  _304
REMARK  131  A    between atoms: _307  and  _309
REMARK  132  A    between atoms: _309  and  _310
REMARK  133  A    between atoms: _309  and  _312
REMARK  134  A    between atoms: _312  and  _313
REMARK  135  A    between atoms: _313  and  _436
REMARK  136  A    between atoms: _314  and  _316
REMARK  137  A    between atoms: _316  and  _317
REMARK  138  A    between atoms: _316  and  _319
REMARK  139  A    between atoms: _319  and  _320
REMARK  140  A    between atoms: _320  and  _321
REMARK  141  A    between atoms: _326  and  _328
REMARK  142  A    between atoms: _328  and  _329
REMARK  143  A    between atoms: _331  and  _333
REMARK  144  A    between atoms: _333  and  _334
REMARK  145  A    between atoms: _333  and  _336
REMARK  146  A    between atoms: _336  and  _337
REMARK  147  A    between atoms: _340  and  _342
REMARK  148  A    between atoms: _342  and  _343
REMARK  149  A    between atoms: _342  and  _345
REMARK  150  A    between atoms: _345  and  _346
REMARK  151  A    between atoms: _348  and  _350
REMARK  152  A    between atoms: _350  and  _351
REMARK  153  A    between atoms: _353  and  _355
REMARK  154  A    between atoms: _355  and  _356
REMARK  155  A    between atoms: _358  and  _360
REMARK  156  A    between atoms: _360  and  _361
REMARK  157  A    between atoms: _360  and  _363
REMARK  158  A    between atoms: _363  and  _364
REMARK  159  A    between atoms: _369  and  _371
REMARK  160  A    between atoms: _371  and  _372
REMARK  161  A    between atoms: _371  and  _374
REMARK  162  A    between atoms: _374  and  _375
REMARK  163  A    between atoms: _378  and  _380
REMARK  164  A    between atoms: _380  and  _381
REMARK  165  A    between atoms: _380  and  _383
REMARK  166  A    between atoms: _386  and  _388
REMARK  167  A    between atoms: _388  and  _389
REMARK  168  A    between atoms: _388  and  _391
REMARK  169  A    between atoms: _391  and  _392
REMARK  170  A    between atoms: _394  and  _396
REMARK  171  A    between atoms: _396  and  _397
REMARK  172  A    between atoms: _396  and  _399
REMARK  173  A    between atoms: _399  and  _400
REMARK  174  A    between atoms: _410  and  _412
REMARK  175  A    between atoms: _412  and  _413
REMARK  176  A    between atoms: _415  and  _417
REMARK  177  A    between atoms: _417  and  _418
REMARK  178  A    between atoms: _417  and  _420
REMARK  179  A    between atoms: _420  and  _421
REMARK  180  A    between atoms: _421  and  _422
REMARK  181  A    between atoms: _425  and  _427
REMARK  182  A    between atoms: _427  and  _428
REMARK  183  A    between atoms: _430  and  _432
REMARK  184  A    between atoms: _432  and  _433
REMARK  185  A    between atoms: _432  and  _435
REMARK  186  A    between atoms: _435  and  _436
REMARK  187  A    between atoms: _437  and  _439
REMARK  188  A    between atoms: _439  and  _440
REMARK  189  A    between atoms: _443  and  _445
REMARK  190  A    between atoms: _445  and  _446
REMARK  191  A    between atoms: _445  and  _448
REMARK  192  A    between atoms: _448  and  _449
REMARK  193  A    between atoms: _449  and  _450
REMARK  194  A    between atoms: _450  and  _451
REMARK  195  A    between atoms: _460  and  _462
REMARK  196  A    between atoms: _462  and  _463
REMARK  197  A    between atoms: _462  and  _465
REMARK  198  A    between atoms: _465  and  _466
REMARK  199  A    between atoms: _466  and  _467
REMARK  200  A    between atoms: _467  and  _468
REMARK  201  A    between atoms: _468  and  _469
REMARK  202  A    between atoms: _473  and  _475
REMARK  203  A    between atoms: _475  and  _476
REMARK  204  A    between atoms: _475  and  _478
REMARK  205  A    between atoms: _478  and  _479
REMARK  206  A    between atoms: _484  and  _485
REMARK  207  A    between atoms: _487  and  _489
REMARK  208  A    between atoms: _489  and  _490
REMARK  209  A    between atoms: _492  and  _494
REMARK  210  A    between atoms: _494  and  _495
REMARK  211  A    between atoms: _494  and  _497
REMARK  212  A    between atoms: _497  and  _498
REMARK  213  A    between atoms: _501  and  _503
REMARK  214  A    between atoms: _503  and  _504
REMARK  215  A    between atoms: _503  and  _506
REMARK  216  A    between atoms: _506  and  _507
REMARK  217  A    between atoms: _512  and  _513
REMARK  218  A    between atoms: _515  and  _517
REMARK  219  A    between atoms: _517  and  _518
REMARK  220  A    between atoms: _517  and  _520
REMARK  221  A    between atoms: _520  and  _521
REMARK                            x       y       z     vdW  Elec       q    Type
REMARK                         _______ _______ _______ _____ _____    ______ ____
ROOT
ATOM      1  CA  SER A   8      -5.455  11.168  30.259  0.00  0.00    +0.160 C 
ENDROOT
BRANCH   1   2
ATOM      2  N   SER A   8      -6.449  11.667  29.291  0.00  0.00    -0.296 N 
ATOM      3  H   SER A   8      -7.136  12.387  29.593  0.00  0.00    +0.150 HD
ATOM      4  C   ASP A   7      -6.486  11.214  28.033  0.00  0.00    +0.243 C 
ATOM      5  O   ASP A   7      -5.660  10.408  27.565  0.00  0.00    -0.273 OA
BRANCH   4   6
ATOM      6  CA  ASP A   7      -7.627  11.721  27.172  0.00  0.00    +0.176 C 
BRANCH   6   7
ATOM      7  N   ASP A   7      -7.934  10.787  26.104  0.00  0.00    -0.295 N 
ATOM      8  C   GLY A   6      -8.603   9.653  26.320  0.00  0.00    +0.241 C 
ATOM      9  O   GLY A   6      -9.133   9.381  27.404  0.00  0.00    -0.273 OA
ATOM     10  H   ASP A   7      -7.622  11.009  25.137  0.00  0.00    +0.150 HD
BRANCH   8  11
ATOM     11  CA  GLY A   6      -8.608   8.660  25.163  0.00  0.00    +0.149 C 
BRANCH  11  12
ATOM     12  N   GLY A   6      -7.472   7.752  25.370  0.00  0.00    -0.297 N 
ATOM     13  H   GLY A   6      -7.637   6.827  25.817  0.00  0.00    +0.150 HD
ATOM     14  C   GLN A   5      -6.242   8.081  25.002  0.00  0.00    +0.243 C 
ATOM     15  O   GLN A   5      -5.963   9.108  24.385  0.00  0.00    -0.273 OA
BRANCH  14  16
ATOM     16  CA  GLN A   5      -5.157   7.085  25.373  0.00  0.00    +0.176 C 
BRANCH  16  17
ATOM     17  N   GLN A   5      -4.100   7.299  24.399  0.00  0.00    -0.295 N 
ATOM     18  C   TRP A   4      -3.125   6.406  24.286  0.00  0.00    +0.241 C 
ATOM     19  O   TRP A   4      -3.004   5.479  25.057  0.00  0.00    -0.273 OA
ATOM     20  H   GLN A   5      -4.108   8.146  23.795  0.00  0.00    +0.150 HD
BRANCH  18  21
ATOM     21  CA  TRP A   4      -2.130   6.622  23.180  0.00  0.00    +0.153 C 
BRANCH  21  22
ATOM     22  N   TRP A   4      -0.975   5.722  23.304  0.00  0.00    -0.297 N 
ATOM     23  H   TRP A   4      -1.045   4.853  23.871  0.00  0.00    +0.150 HD
ATOM     24  C   SER A   3       0.160   6.029  22.684  0.00  0.00    +0.243 C 
ATOM     25  O   SER A   3       0.270   7.057  22.023  0.00  0.00    -0.273 OA
BRANCH  24  26
ATOM     26  CA  SER A   3       1.345   5.044  22.775  0.00  0.00    +0.178 C 
BRANCH  26  27
ATOM     27  N   SER A   3       1.918   4.866  24.133  0.00  0.00    -0.295 N 
ATOM     28  H   SER A   3       1.361   4.414  24.886  0.00  0.00    +0.150 HD
ATOM     29  C   VAL A   2       3.166   5.297  24.375  0.00  0.00    +0.241 C 
ATOM     30  O   VAL A   2       3.833   5.970  23.565  0.00  0.00    -0.273 OA
BRANCH  29  31
ATOM     31  CA  VAL A   2       3.791   4.898  25.713  0.00  0.00    +0.148 C 
BRANCH  31  32
ATOM     32  N   VAL A   2       4.948   4.035  25.445  0.00  0.00    -0.297 N 
ATOM     33  H   VAL A   2       5.872   4.302  25.842  0.00  0.00    +0.150 HD
ATOM     34  C   ILE A   1       4.864   2.928  24.717  0.00  0.00    +0.238 C 
ATOM     35  O   ILE A   1       3.794   2.381  24.369  0.00  0.00    -0.274 OA
BRANCH  34  36
ATOM     36  CA  ILE A   1       6.190   2.235  24.464  0.00  0.00    +0.145 C 
BRANCH  36  37
ATOM     37  CB  ILE A   1       6.523   2.265  22.973  0.00  0.00    +0.025 C 
ATOM     38  CG2 ILE A   1       6.766   3.734  22.494  0.00  0.00    +0.002 C 
BRANCH  37  39
ATOM     39  CG1 ILE A   1       7.725   1.347  22.697  0.00  0.00    +0.002 C 
ATOM     40  CD1 ILE A   1       7.904   1.083  21.188  0.00  0.00    +0.000 C 
ENDBRANCH  37  39
ENDBRANCH  36  37
BRANCH  36  41
ATOM     41  N   ILE A   1       5.899   0.919  24.957  0.00  0.00    -0.238 NA
ATOM     42  H   ILE A   1       5.049   0.438  24.601  0.00  0.00    +0.142 HD
ENDBRANCH  36  41
ENDBRANCH  34  36
ENDBRANCH  31  32
BRANCH  31  43
ATOM     43  CB  VAL A   2       4.211   6.160  26.480  0.00  0.00    +0.027 C 
ATOM     44  CG2 VAL A   2       4.807   5.764  27.816  0.00  0.00    +0.002 C 
ATOM     45  CG1 VAL A   2       3.008   7.116  26.683  0.00  0.00    +0.002 C 
ENDBRANCH  31  43
ENDBRANCH  29  31
ENDBRANCH  26  27
BRANCH  26  46
ATOM     46  CB  SER A   3       1.005   3.679  22.156  0.00  0.00    +0.166 C 
BRANCH  46  47
ATOM     47  OG  SER A   3       0.600   3.818  20.782  0.00  0.00    -0.380 OA
ATOM     48  H   SER A   3       1.336   4.227  20.262  0.00  0.00    +0.211 HD
ENDBRANCH  46  47
ENDBRANCH  26  46
ENDBRANCH  24  26
ENDBRANCH  21  22
BRANCH  21  49
ATOM     49  CB  TRP A   4      -2.791   6.472  21.798  0.00  0.00    +0.057 C 
BRANCH  49  50
ATOM     50  CG  TRP A   4      -3.311   5.132  21.497  0.00  0.00    -0.002 A 
ATOM     51  CD2 TRP A   4      -4.654   4.649  21.714  0.00  0.00    +0.013 A 
ATOM     52  CE3 TRP A   4      -5.828   5.230  22.219  0.00  0.00    +0.001 A 
ATOM     53  CZ3 TRP A   4      -7.011   4.426  22.255  0.00  0.00    +0.000 A 
ATOM     54  CH2 TRP A   4      -7.006   3.088  21.804  0.00  0.00    +0.001 A 
ATOM     55  CZ2 TRP A   4      -5.862   2.495  21.323  0.00  0.00    +0.017 A 
ATOM     56  CE2 TRP A   4      -4.689   3.302  21.269  0.00  0.00    +0.056 A 
ATOM     57  NE1 TRP A   4      -3.433   2.980  20.823  0.00  0.00    -0.352 N 
ATOM     58  HE1 TRP A   4      -3.146   2.055  20.443  0.00  0.00    +0.166 HD
ATOM     59  CD1 TRP A   4      -2.609   4.083  20.959  0.00  0.00    +0.068 A 
ENDBRANCH  49  50
ENDBRANCH  21  49
ENDBRANCH  18  21
ENDBRANCH  16  17
ENDBRANCH  14  16
ENDBRANCH  11  12
BRANCH  11  60
ATOM     60  CB  GLY A   6      -9.899   7.818  25.063  0.00  0.00    +0.041 C 
BRANCH  60  61
ATOM     61  CG  GLY A   6      -9.815   6.733  23.983  0.00  0.00    +0.116 C 
BRANCH  61  62
ATOM     62  CD  GLY A   6     -11.092   5.914  23.872  0.00  0.00    +0.365 C 
ATOM     63  OE2 GLY A   6     -11.015   4.686  23.986  0.00  0.00    -0.246 OA
ATOM     64  OE1 GLY A   6     -12.174   6.512  23.690  0.00  0.00    -0.246 OA
ENDBRANCH  61  62
ENDBRANCH  60  61
ENDBRANCH  11  60
ENDBRANCH   8  11
ENDBRANCH   6   7
ENDBRANCH   4   6
ENDBRANCH   1   2
BRANCH   1  65
ATOM     65  C   SER A   8      -6.151  10.891  31.565  0.00  0.00    +0.242 C 
ATOM     66  N   GLY A   9      -5.959   9.684  32.105  0.00  0.00    -0.297 N 
ATOM     67  H   GLY A   9      -5.388   8.989  31.582  0.00  0.00    +0.150 HD
ATOM     68  O   SER A   8      -6.861  11.744  32.065  0.00  0.00    -0.273 OA
BRANCH  66  69
ATOM     69  CA  GLY A   9      -6.519   9.298  33.404  0.00  0.00    +0.149 C 
ATOM     70  CB  GLY A   9      -5.843  10.101  34.537  0.00  0.00    +0.031 C 
BRANCH  69  71
ATOM     71  C   GLY A   9      -8.049   9.408  33.501  0.00  0.00    +0.241 C 
ATOM     72  O   GLY A   9      -8.590   9.549  34.601  0.00  0.00    -0.273 OA
ATOM     73  N   GLY A  10      -8.736   9.327  32.365  0.00  0.00    -0.298 N 
ATOM     74  H   GLY A  10      -8.225   9.256  31.462  0.00  0.00    +0.150 HD
BRANCH  73  75
ATOM     75  CA  GLY A  10     -10.206   9.336  32.365  0.00  0.00    +0.137 C 
BRANCH  75  76
ATOM     76  C   GLY A  10     -10.773   8.102  33.045  0.00  0.00    +0.227 C 
ATOM     77  O   GLY A  10     -10.211   6.994  32.971  0.00  0.00    -0.286 OA
ENDBRANCH  75  76
BRANCH  75  78
ATOM     78  CB  GLY A  10     -10.760   9.460  30.949  0.00  0.00    +0.031 C 
BRANCH  78  79
ATOM     79  CG  GLY A  10     -10.561  10.834  30.381  0.00  0.00    +0.045 C 
BRANCH  79  80
ATOM     80  CD  GLY A  10     -11.375  11.072  29.134  0.00  0.00    +0.174 C 
BRANCH  80  81
ATOM     81  NE  GLY A  10     -10.934  12.284  28.464  0.00  0.00    -0.265 N 
ATOM     82  HE  GLY A  10     -10.385  12.973  29.016  0.00  0.00    +0.259 HD
ATOM     83  CZ  GLY A  10     -11.187  12.568  27.193  0.00  0.00    +0.342 C 
ATOM     84  NH2 GLY A  10     -10.741  13.692  26.666  0.00  0.00    -0.292 N 
ATOM     85 HH21 GLY A  10     -10.191  14.356  27.247  0.00  0.00    +0.255 HD
ATOM     86 HH22 GLY A  10     -10.940  13.914  25.670  0.00  0.00    +0.255 HD
ATOM     87  NH1 GLY A  10     -11.874  11.720  26.444  0.00  0.00    -0.292 N 
ATOM     88 HH11 GLY A  10     -12.218  10.827  26.851  0.00  0.00    +0.255 HD
ATOM     89 HH12 GLY A  10     -12.070  11.947  25.448  0.00  0.00    +0.255 HD
ENDBRANCH  80  81
ENDBRANCH  79  80
ENDBRANCH  78  79
ENDBRANCH  75  78
ENDBRANCH  73  75
ENDBRANCH  69  71
ENDBRANCH  66  69
ENDBRANCH   1  65
BRANCH   1  90
ATOM     90  CB  SER A   8      -4.350  12.195  30.513  0.00  0.00    +0.098 C 
BRANCH  90  91
ATOM     91  SG  SER A   8      -3.600  12.701  29.010  0.00  0.00    -0.080 S 
BRANCH  91  92
ATOM     92  SG  TRP A   4      -2.176  13.980  29.639  0.00  0.00    -0.080 S 
BRANCH  92  93
ATOM     93  CB  TRP A   4      -0.769  12.900  30.118  0.00  0.00    +0.098 C 
BRANCH  93  94
ATOM     94  CA  TRP A   4      -0.395  11.802  29.115  0.00  0.00    +0.160 C 
BRANCH  94  97
ATOM     95  C   SER A   3      -0.210   9.807  30.521  0.00  0.00    +0.241 C 
ATOM     96  O   SER A   3      -1.434   9.728  30.627  0.00  0.00    -0.273 OA
ATOM     97  N   TRP A   4       0.383  10.763  29.791  0.00  0.00    -0.296 N 
ATOM     98  H   TRP A   4       1.419  10.766  29.703  0.00  0.00    +0.150 HD
BRANCH  95  99
ATOM     99  CA  SER A   3       0.691   8.802  31.248  0.00  0.00    +0.149 C 
ATOM    100  CB  SER A   3       1.470   7.939  30.259  0.00  0.00    +0.031 C 
BRANCH  99 103
ATOM    101  C   VAL A   2      -0.606   8.445  33.269  0.00  0.00    +0.241 C 
ATOM    102  O   VAL A   2      -0.056   9.371  33.839  0.00  0.00    -0.273 OA
ATOM    103  N   SER A   3      -0.168   7.962  32.102  0.00  0.00    -0.297 N 
ATOM    104  H   SER A   3      -0.431   7.002  31.799  0.00  0.00    +0.150 HD
BRANCH 101 105
ATOM    105  CA  VAL A   2      -1.808   7.769  33.893  0.00  0.00    +0.160 C 
BRANCH 105 108
ATOM    106  C   ILE A   1      -2.816   7.679  36.118  0.00  0.00    +0.238 C 
ATOM    107  O   ILE A   1      -3.512   6.703  35.839  0.00  0.00    -0.274 OA
ATOM    108  N   VAL A   2      -1.961   8.244  35.274  0.00  0.00    -0.297 N 
ATOM    109  H   VAL A   2      -1.384   9.045  35.600  0.00  0.00    +0.150 HD
BRANCH 106 110
ATOM    110  CA  ILE A   1      -2.928   8.291  37.496  0.00  0.00    +0.145 C 
BRANCH 110 111
ATOM    111  N   ILE A   1      -4.361   8.411  37.791  0.00  0.00    -0.238 NA
ATOM    112  H   ILE A   1      -4.995   7.638  37.504  0.00  0.00    +0.142 HD
ENDBRANCH 110 111
BRANCH 110 113
ATOM    113  CB  ILE A   1      -2.224   7.361  38.502  0.00  0.00    +0.038 C 
BRANCH 113 114
ATOM    114  CG  ILE A   1      -2.200   7.965  39.937  0.00  0.00    +0.116 C 
BRANCH 114 115
ATOM    115  CD  ILE A   1      -1.209   7.259  40.832  0.00  0.00    +0.365 C 
ATOM    116  OE2 ILE A   1      -0.335   7.967  41.403  0.00  0.00    -0.246 OA
ATOM    117  OE1 ILE A   1      -1.289   6.015  40.917  0.00  0.00    -0.246 OA
ENDBRANCH 114 115
ENDBRANCH 113 114
ENDBRANCH 110 113
ENDBRANCH 106 110
ENDBRANCH 105 108
BRANCH 105 118
ATOM    118  CB  VAL A   2      -3.093   8.128  33.106  0.00  0.00    +0.143 C 
BRANCH 118 119
ATOM    119  CG  VAL A   2      -3.270   7.358  31.797  0.00  0.00    +0.367 C 
ATOM    120  OD2 VAL A   2      -2.419   6.529  31.392  0.00  0.00    -0.246 OA
ATOM    121  OD1 VAL A   2      -4.294   7.661  31.123  0.00  0.00    -0.246 OA
ENDBRANCH 118 119
ENDBRANCH 105 118
ENDBRANCH 101 105
ENDBRANCH  99 103
ENDBRANCH  95  99
ENDBRANCH  94  97
BRANCH  94 122
ATOM    122  C   TRP A   4       0.438  12.362  27.965  0.00  0.00    +0.242 C 
ATOM    123  O   TRP A   4       1.523  11.831  27.648  0.00  0.00    -0.273 OA
ATOM    124  N   GLN A   5      -0.112  13.390  27.317  0.00  0.00    -0.297 N 
ATOM    125  H   GLN A   5      -1.053  13.712  27.620  0.00  0.00    +0.150 HD
BRANCH 124 126
ATOM    126  CA  GLN A   5       0.529  14.091  26.206  0.00  0.00    +0.149 C 
BRANCH 126 127
ATOM    127  C   GLN A   5       1.928  14.553  26.605  0.00  0.00    +0.241 C 
ATOM    128  O   GLN A   5       2.103  15.133  27.658  0.00  0.00    -0.273 OA
ATOM    129  N   GLY A   6       2.927  14.264  25.764  0.00  0.00    -0.295 N 
ATOM    130  H   GLY A   6       2.712  13.801  24.858  0.00  0.00    +0.150 HD
BRANCH 129 131
ATOM    131  CA  GLY A   6       4.291  14.580  26.088  0.00  0.00    +0.176 C 
BRANCH 131 132
ATOM    132  C   GLY A   6       5.061  13.337  26.542  0.00  0.00    +0.243 C 
ATOM    133  N   ASP A   7       4.338  12.336  27.041  0.00  0.00    -0.296 N 
ATOM    134  H   ASP A   7       3.305  12.433  27.116  0.00  0.00    +0.150 HD
ATOM    135  O   GLY A   6       6.277  13.298  26.454  0.00  0.00    -0.273 OA
BRANCH 133 136
ATOM    136  CA  ASP A   7       4.988  11.092  27.488  0.00  0.00    +0.160 C 
BRANCH 136 137
ATOM    137  C   ASP A   7       5.136  10.100  26.362  0.00  0.00    +0.241 C 
ATOM    138  O   ASP A   7       5.954   9.189  26.466  0.00  0.00    -0.273 OA
ATOM    139  N   SER A   8       4.335  10.245  25.302  0.00  0.00    -0.295 N 
ATOM    140  H   SER A   8       3.682  11.053  25.264  0.00  0.00    +0.150 HD
BRANCH 139 141
ATOM    141  CA  SER A   8       4.359   9.283  24.187  0.00  0.00    +0.178 C 
BRANCH 141 142
ATOM    142  C   SER A   8       5.757   9.004  23.698  0.00  0.00    +0.243 C 
ATOM    143  O   SER A   8       6.616   9.910  23.681  0.00  0.00    -0.273 OA
ATOM    144  N   GLY A   9       5.994   7.758  23.314  0.00  0.00    -0.295 N 
ATOM    145  H   GLY A   9       5.211   7.074  23.333  0.00  0.00    +0.150 HD
BRANCH 144 146
ATOM    146  CA  GLY A   9       7.306   7.306  22.866  0.00  0.00    +0.176 C 
BRANCH 146 147
ATOM    147  C   GLY A   9       8.235   6.853  23.968  0.00  0.00    +0.243 C 
ATOM    148  N   GLY A  10       7.905   7.235  25.193  0.00  0.00    -0.296 N 
ATOM    149  H   GLY A  10       7.030   7.775  25.351  0.00  0.00    +0.150 HD
ATOM    150  O   GLY A   9       9.255   6.199  23.704  0.00  0.00    -0.273 OA
BRANCH 148 151
ATOM    151  CA  GLY A  10       8.773   6.897  26.327  0.00  0.00    +0.163 C 
BRANCH 151 152
ATOM    152  C   GLY A  10       8.619   5.490  26.882  0.00  0.00    +0.229 C 
ATOM    153  O   GLY A  10       7.802   4.679  26.390  0.00  0.00    -0.286 OA
ENDBRANCH 151 152
ENDBRANCH 148 151
ENDBRANCH 146 147
ENDBRANCH 144 146
ENDBRANCH 141 142
BRANCH 141 154
ATOM    154  CB  SER A   8       3.509   9.775  23.026  0.00  0.00    +0.166 C 
BRANCH 154 155
ATOM    155  OG  SER A   8       2.159   9.469  23.278  0.00  0.00    -0.380 OA
ATOM    156  H   SER A   8       1.871   9.915  24.114  0.00  0.00    +0.211 HD
ENDBRANCH 154 155
ENDBRANCH 141 154
ENDBRANCH 139 141
ENDBRANCH 136 137
BRANCH 136 157
ATOM    157  CB  ASP A   7       4.220  10.422  28.640  0.00  0.00    +0.143 C 
BRANCH 157 158
ATOM    158  CG  ASP A   7       4.218  11.264  29.910  0.00  0.00    +0.367 C 
ATOM    159  OD2 ASP A   7       3.163  11.318  30.571  0.00  0.00    -0.246 OA
ATOM    160  OD1 ASP A   7       5.262  11.881  30.259  0.00  0.00    -0.246 OA
ENDBRANCH 157 158
ENDBRANCH 136 157
ENDBRANCH 133 136
ENDBRANCH 131 132
ENDBRANCH 129 131
ENDBRANCH 126 127
BRANCH 126 161
ATOM    161  CB  GLN A   5      -0.329  15.314  25.818  0.00  0.00    +0.039 C 
BRANCH 161 162
ATOM    162  CG  GLN A   5       0.231  16.131  24.657  0.00  0.00    +0.087 C 
BRANCH 162 163
ATOM    163  CD  GLN A   5       0.151  15.391  23.342  0.00  0.00    +0.219 C 
ATOM    164  OE1 GLN A   5      -0.882  14.795  23.003  0.00  0.00    -0.275 OA
ATOM    165  NE2 GLN A   5       1.236  15.447  22.572  0.00  0.00    -0.329 N 
ATOM    166 HE21 GLN A   5       2.080  15.959  22.899  0.00  0.00    +0.145 HD
ATOM    167 HE22 GLN A   5       1.239  14.978  21.644  0.00  0.00    +0.145 HD
ENDBRANCH 162 163
ENDBRANCH 161 162
ENDBRANCH 126 161
ENDBRANCH 124 126
ENDBRANCH  94 122
ENDBRANCH  93  94
ENDBRANCH  92  93
ENDBRANCH  91  92
ENDBRANCH  90  91
ENDBRANCH   1  90
TORSDOF 71
REMARK  Name = ../refined-set-2016/2xc4/2xc4_pocket.pdb
REMARK  221 active torsions:
REMARK  status: ('A' for Active; 'I' for Inactive)
REMARK    1  A    between atoms: _1  and  _5
REMARK    2  A    between atoms: _5  and  _6
REMARK    3  A    between atoms: _5  and  _8
REMARK    4  A    between atoms: _8  and  _9
REMARK    5  A    between atoms: _12  and  _14
REMARK    6  A    between atoms: _14  and  _15
REMARK    7  A    between atoms: _14  and  _17
REMARK    8  A    between atoms: _20  and  _22
REMARK    9  A    between atoms: _22  and  _23
REMARK   10  A    between atoms: _22  and  _25
REMARK   11  A    between atoms: _25  and  _26
REMARK   12  A    between atoms: _31  and  _33
REMARK   13  A    between atoms: _33  and  _34
REMARK   14  A    between atoms: _33  and  _36
REMARK   15  A    between atoms: _36  and  _37
REMARK   16  A    between atoms: _37  and  _38
REMARK   17  A    between atoms: _43  and  _45
REMARK   18  A    between atoms: _45  and  _46
REMARK   19  A    between atoms: _45  and  _48
REMARK   20  A    between atoms: _48  and  _49
REMARK   21  A    between atoms: _52  and  _54
REMARK   22  A    between atoms: _54  and  _55
REMARK   23  A    between atoms: _54  and  _57
REMARK   24  A    between atoms: _57  and  _58
REMARK   25  A    between atoms: _58  and  _59
REMARK   26  A    between atoms: _59  and  _60
REMARK   27  A    between atoms: _60  and  _61
REMARK   28  A    between atoms: _65  and  _67
REMARK   29  A    between atoms: _67  and  _68
REMARK   30  A    between atoms: _67  and  _70
REMARK   31  A    between atoms: _70  and  _71
REMARK   32  A    between atoms: _71  and  _72
REMARK   33  A    between atoms: _75  and  _77
REMARK   34  A    between atoms: _77  and  _78
REMARK   35  A    between atoms: _77  and  _80
REMARK   36  A    between atoms: _80  and  _81
REMARK   37  A    between atoms: _84  and  _86
REMARK   38  A    between atoms: _86  and  _87
REMARK   39  A    between atoms: _86  and  _89
REMARK   40  A    between atoms: _89  and  _90
REMARK   41  A    between atoms: _95  and  _96
REMARK   42  A    between atoms: _98  and  _100
REMARK   43  A    between atoms: _100  and  _101
REMARK   44  A    between atoms: _100  and  _103
REMARK   45  A    between atoms: _103  and  _104
REMARK   46  A    between atoms: _107  and  _109
REMARK   47  A    between atoms: _109  and  _110
REMARK   48  A    between atoms: _109  and  _112
REMARK   49  A    between atoms: _112  and  _113
REMARK   50  A    between atoms: _116  and  _118
REMARK   51  A    between atoms: _118  and  _119
REMARK   52  A    between atoms: _118  and  _121
REMARK   53  A    between atoms: _124  and  _126
REMARK   54  A    between atoms: _126  and  _127
REMARK   55  A    between atoms: _126  and  _129
REMARK   56  A    between atoms: _129  and  _130
REMARK   57  A    between atoms: _130  and  _131
REMARK   58  A    between atoms: _131  and  _132
REMARK   59  A    between atoms: _141  and  _143
REMARK   60  A    between atoms: _143  and  _144
REMARK   61  A    between atoms: _143  and  _146
REMARK   62  A    between atoms: _146  and  _147
REMARK   63  A    between atoms: _152  and  _154
REMARK   64  A    between atoms: _154  and  _155
REMARK   65  A    between atoms: _154  and  _157
REMARK   66  A    between atoms: _157  and  _158
REMARK   67  A    between atoms: _158  and  _159
REMARK   68  A    between atoms: _162  and  _164
REMARK   69  A    between atoms: _164  and  _165
REMARK   70  A    between atoms: _164  and  _167
REMARK   71  A    between atoms: _167  and  _168
REMARK   72  A    between atoms: _168  and  _169
REMARK   73  A    between atoms: _169  and  _170
REMARK   74  A    between atoms: _170  and  _171
REMARK   75  A    between atoms: _175  and  _177
REMARK   76  A    between atoms: _177  and  _178
REMARK   77  A    between atoms: _180  and  _182
REMARK   78  A    between atoms: _182  and  _183
REMARK   79  A    between atoms: _182  and  _185
REMARK   80  A    between atoms: _188  and  _190
REMARK   81  A    between atoms: _190  and  _191
REMARK   82  A    between atoms: _190  and  _193
REMARK   83  A    between atoms: _193  and  _194
REMARK   84  A    between atoms: _196  and  _198
REMARK   85  A    between atoms: _198  and  _199
REMARK   86  A    between atoms: _198  and  _201
REMARK   87  A    between atoms: _201  and  _202
REMARK   88  A    between atoms: _204  and  _206
REMARK   89  A    between atoms: _206  and  _207
REMARK   90  A    between atoms: _206  and  _209
REMARK   91  A    between atoms: _209  and  _210
REMARK   92  A    between atoms: _216  and  _218
REMARK   93  A    between atoms: _218  and  _219
REMARK   94  A    between atoms: _218  and  _221
REMARK   95  A    between atoms: _221  and  _222
REMARK   96  A    between atoms: _225  and  _227
REMARK   97  A    between atoms: _227  and  _228
REMARK   98  A    between atoms: _227  and  _230
REMARK   99  A    between atoms: _230  and  _231
REMARK  100  A    between atoms: _234  and  _236
REMARK  101  A    between atoms: _236  and  _237
REMARK  102  A    between atoms: _236  and  _239
REMARK  103  A    between atoms: _239  and  _240
REMARK  104  A    between atoms: _243  and  _245
REMARK  105  A    between atoms: _245  and  _246
REMARK  106  A    between atoms: _245  and  _248
REMARK  107  A    between atoms: _248  and  _249
REMARK  108  A    between atoms: _249  and  _250
REMARK  109  A    between atoms: _252  and  _254
REMARK  110  A    between atoms: _254  and  _255
REMARK  111  A    between atoms: _254  and  _257
REMARK  112  A    between atoms: _257  and  _258
REMARK  113  A    between atoms: _264  and  _266
REMARK  114  A    between atoms: _266  and  _267
REMARK  115  A    between atoms: _266  and  _269
REMARK  116  A    between atoms: _271  and  _273
REMARK  117  A    between atoms: _273  and  _274
REMARK  118  A    between atoms: _277  and  _279
REMARK  119  A    between atoms: _279  and  _280
REMARK  120  A    between atoms: _282  and  _284
REMARK  121  A    between atoms: _284  and  _285
REMARK  122  A    between atoms: _284  and  _287
REMARK  123  A    between atoms: _287  and  _288
REMARK  124  A    between atoms: _288  and  _289
REMARK  125  A    between atoms: _292  and  _294
REMARK  126  A    between atoms: _294  and  _295
REMARK  127  A    between atoms: _294  and  _297
REMARK  128  A    between atoms: _297  and  _298
REMARK  129  A    between atoms: _301  and  _303
REMARK  130  A    between atoms: _303  and  _304
REMARK  131  A    between atoms: _307  and  _309
REMARK  132  A    between atoms: _309  and  _310
REMARK  133  A    between atoms: _309  and  _312
REMARK  134  A    between atoms: _312  and  _313
REMARK  135  A    between atoms: _313  and  _436
REMARK  136  A    between atoms: _314  and  _316
REMARK  137  A    between atoms: _316  and  _317
REMARK  138  A    between atoms: _316  and  _319
REMARK  139  A    between atoms: _319  and  _320
REMARK  140  A    between atoms: _320  and  _321
REMARK  141  A    between atoms: _326  and  _328
REMARK  142  A    between atoms: _328  and  _329
REMARK  143  A    between atoms: _331  and  _333
REMARK  144  A    between atoms: _333  and  _334
REMARK  145  A    between atoms: _333  and  _336
REMARK  146  A    between atoms: _336  and  _337
REMARK  147  A    between atoms: _340  and  _342
REMARK  148  A    between atoms: _342  and  _343
REMARK  149  A    between atoms: _342  and  _345
REMARK  150  A    between atoms: _345  and  _346
REMARK  151  A    between atoms: _348  and  _350
REMARK  152  A    between atoms: _350  and  _351
REMARK  153  A    between atoms: _353  and  _355
REMARK  154  A    between atoms: _355  and  _356
REMARK  155  A    between atoms: _358  and  _360
REMARK  156  A    between atoms: _360  and  _361
REMARK  157  A    between atoms: _360  and  _363
REMARK  158  A    between atoms: _363  and  _364
REMARK  159  A    between atoms: _369  and  _371
REMARK  160  A    between atoms: _371  and  _372
REMARK  161  A    between atoms: _371  and  _374
REMARK  162  A    between atoms: _374  and  _375
REMARK  163  A    between atoms: _378  and  _380
REMARK  164  A    between atoms: _380  and  _381
REMARK  165  A    between atoms: _380  and  _383
REMARK  166  A    between atoms: _386  and  _388
REMARK  167  A    between atoms: _388  and  _389
REMARK  168  A    between atoms: _388  and  _391
REMARK  169  A    between atoms: _391  and  _392
REMARK  170  A    between atoms: _394  and  _396
REMARK  171  A    between atoms: _396  and  _397
REMARK  172  A    between atoms: _396  and  _399
REMARK  173  A    between atoms: _399  and  _400
REMARK  174  A    between atoms: _410  and  _412
REMARK  175  A    between atoms: _412  and  _413
REMARK  176  A    between atoms: _415  and  _417
REMARK  177  A    between atoms: _417  and  _418
REMARK  178  A    between atoms: _417  and  _420
REMARK  179  A    between atoms: _420  and  _421
REMARK  180  A    between atoms: _421  and  _422
REMARK  181  A    between atoms: _425  and  _427
REMARK  182  A    between atoms: _427  and  _428
REMARK  183  A    between atoms: _430  and  _432
REMARK  184  A    between atoms: _432  and  _433
REMARK  185  A    between atoms: _432  and  _435
REMARK  186  A    between atoms: _435  and  _436
REMARK  187  A    between atoms: _437  and  _439
REMARK  188  A    between atoms: _439  and  _440
REMARK  189  A    between atoms: _443  and  _445
REMARK  190  A    between atoms: _445  and  _446
REMARK  191  A    between atoms: _445  and  _448
REMARK  192  A    between atoms: _448  and  _449
REMARK  193  A    between atoms: _449  and  _450
REMARK  194  A    between atoms: _450  and  _451
REMARK  195  A    between atoms: _460  and  _462
REMARK  196  A    between atoms: _462  and  _463
REMARK  197  A    between atoms: _462  and  _465
REMARK  198  A    between atoms: _465  and  _466
REMARK  199  A    between atoms: _466  and  _467
REMARK  200  A    between atoms: _467  and  _468
REMARK  201  A    between atoms: _468  and  _469
REMARK  202  A    between atoms: _473  and  _475
REMARK  203  A    between atoms: _475  and  _476
REMARK  204  A    between atoms: _475  and  _478
REMARK  205  A    between atoms: _478  and  _479
REMARK  206  A    between atoms: _484  and  _485
REMARK  207  A    between atoms: _487  and  _489
REMARK  208  A    between atoms: _489  and  _490
REMARK  209  A    between atoms: _492  and  _494
REMARK  210  A    between atoms: _494  and  _495
REMARK  211  A    between atoms: _494  and  _497
REMARK  212  A    between atoms: _497  and  _498
REMARK  213  A    between atoms: _501  and  _503
REMARK  214  A    between atoms: _503  and  _504
REMARK  215  A    between atoms: _503  and  _506
REMARK  216  A    between atoms: _506  and  _507
REMARK  217  A    between atoms: _512  and  _513
REMARK  218  A    between atoms: _515  and  _517
REMARK  219  A    between atoms: _517  and  _518
REMARK  220  A    between atoms: _517  and  _520
REMARK  221  A    between atoms: _520  and  _521
REMARK                            x       y       z     vdW  Elec       q    Type
REMARK                         _______ _______ _______ _____ _____    ______ ____
ROOT
ATOM      1  CB  HIS A   1       5.961   0.786  29.408  0.00  0.00    +0.072 C 
ENDROOT
BRANCH   1   2
ATOM      2  CG  HIS A   1       5.195  -0.154  30.296  0.00  0.00    +0.082 A 
ATOM      3  CD2 HIS A   1       4.041   0.005  30.988  0.00  0.00    +0.115 A 
ATOM      4  NE2 HIS A   1       3.782  -1.189  31.627  0.00  0.00    -0.221 NA
ATOM      5  CE1 HIS A   1       4.744  -2.044  31.340  0.00  0.00    +0.199 A 
ATOM      6  ND1 HIS A   1       5.611  -1.444  30.540  0.00  0.00    -0.227 NA
ENDBRANCH   1   2
BRANCH   1   7
ATOM      7  CA  HIS A   1       7.271   1.276  30.015  0.00  0.00    +0.139 C 
BRANCH   7   8
ATOM      8  N   HIS A   1       7.942   2.172  29.041  0.00  0.00    -0.239 NA
ATOM      9  H   HIS A   1       8.076   1.821  28.071  0.00  0.00    +0.142 HD
ENDBRANCH   7   8
BRANCH   7  10
ATOM     10  C   HIS A   1       8.237   0.103  30.287  0.00  0.00    +0.224 C 
ATOM     11  O   HIS A   1       8.609  -0.620  29.371  0.00  0.00    -0.287 OA
ENDBRANCH   7  10
ENDBRANCH   1   7
TORSDOF 4
REMARK  Name = ../refined-set-2016/2xc4/2xc4_pocket.pdb
REMARK  221 active torsions:
REMARK  status: ('A' for Active; 'I' for Inactive)
REMARK    1  A    between atoms: _1  and  _5
REMARK    2  A    between atoms: _5  and  _6
REMARK    3  A    between atoms: _5  and  _8
REMARK    4  A    between atoms: _8  and  _9
REMARK    5  A    between atoms: _12  and  _14
REMARK    6  A    between atoms: _14  and  _15
REMARK    7  A    between atoms: _14  and  _17
REMARK    8  A    between atoms: _20  and  _22
REMARK    9  A    between atoms: _22  and  _23
REMARK   10  A    between atoms: _22  and  _25
REMARK   11  A    between atoms: _25  and  _26
REMARK   12  A    between atoms: _31  and  _33
REMARK   13  A    between atoms: _33  and  _34
REMARK   14  A    between atoms: _33  and  _36
REMARK   15  A    between atoms: _36  and  _37
REMARK   16  A    between atoms: _37  and  _38
REMARK   17  A    between atoms: _43  and  _45
REMARK   18  A    between atoms: _45  and  _46
REMARK   19  A    between atoms: _45  and  _48
REMARK   20  A    between atoms: _48  and  _49
REMARK   21  A    between atoms: _52  and  _54
REMARK   22  A    between atoms: _54  and  _55
REMARK   23  A    between atoms: _54  and  _57
REMARK   24  A    between atoms: _57  and  _58
REMARK   25  A    between atoms: _58  and  _59
REMARK   26  A    between atoms: _59  and  _60
REMARK   27  A    between atoms: _60  and  _61
REMARK   28  A    between atoms: _65  and  _67
REMARK   29  A    between atoms: _67  and  _68
REMARK   30  A    between atoms: _67  and  _70
REMARK   31  A    between atoms: _70  and  _71
REMARK   32  A    between atoms: _71  and  _72
REMARK   33  A    between atoms: _75  and  _77
REMARK   34  A    between atoms: _77  and  _78
REMARK   35  A    between atoms: _77  and  _80
REMARK   36  A    between atoms: _80  and  _81
REMARK   37  A    between atoms: _84  and  _86
REMARK   38  A    between atoms: _86  and  _87
REMARK   39  A    between atoms: _86  and  _89
REMARK   40  A    between atoms: _89  and  _90
REMARK   41  A    between atoms: _95  and  _96
REMARK   42  A    between atoms: _98  and  _100
REMARK   43  A    between atoms: _100  and  _101
REMARK   44  A    between atoms: _100  and  _103
REMARK   45  A    between atoms: _103  and  _104
REMARK   46  A    between atoms: _107  and  _109
REMARK   47  A    between atoms: _109  and  _110
REMARK   48  A    between atoms: _109  and  _112
REMARK   49  A    between atoms: _112  and  _113
REMARK   50  A    between atoms: _116  and  _118
REMARK   51  A    between atoms: _118  and  _119
REMARK   52  A    between atoms: _118  and  _121
REMARK   53  A    between atoms: _124  and  _126
REMARK   54  A    between atoms: _126  and  _127
REMARK   55  A    between atoms: _126  and  _129
REMARK   56  A    between atoms: _129  and  _130
REMARK   57  A    between atoms: _130  and  _131
REMARK   58  A    between atoms: _131  and  _132
REMARK   59  A    between atoms: _141  and  _143
REMARK   60  A    between atoms: _143  and  _144
REMARK   61  A    between atoms: _143  and  _146
REMARK   62  A    between atoms: _146  and  _147
REMARK   63  A    between atoms: _152  and  _154
REMARK   64  A    between atoms: _154  and  _155
REMARK   65  A    between atoms: _154  and  _157
REMARK   66  A    between atoms: _157  and  _158
REMARK   67  A    between atoms: _158  and  _159
REMARK   68  A    between atoms: _162  and  _164
REMARK   69  A    between atoms: _164  and  _165
REMARK   70  A    between atoms: _164  and  _167
REMARK   71  A    between atoms: _167  and  _168
REMARK   72  A    between atoms: _168  and  _169
REMARK   73  A    between atoms: _169  and  _170
REMARK   74  A    between atoms: _170  and  _171
REMARK   75  A    between atoms: _175  and  _177
REMARK   76  A    between atoms: _177  and  _178
REMARK   77  A    between atoms: _180  and  _182
REMARK   78  A    between atoms: _182  and  _183
REMARK   79  A    between atoms: _182  and  _185
REMARK   80  A    between atoms: _188  and  _190
REMARK   81  A    between atoms: _190  and  _191
REMARK   82  A    between atoms: _190  and  _193
REMARK   83  A    between atoms: _193  and  _194
REMARK   84  A    between atoms: _196  and  _198
REMARK   85  A    between atoms: _198  and  _199
REMARK   86  A    between atoms: _198  and  _201
REMARK   87  A    between atoms: _201  and  _202
REMARK   88  A    between atoms: _204  and  _206
REMARK   89  A    between atoms: _206  and  _207
REMARK   90  A    between atoms: _206  and  _209
REMARK   91  A    between atoms: _209  and  _210
REMARK   92  A    between atoms: _216  and  _218
REMARK   93  A    between atoms: _218  and  _219
REMARK   94  A    between atoms: _218  and  _221
REMARK   95  A    between atoms: _221  and  _222
REMARK   96  A    between atoms: _225  and  _227
REMARK   97  A    between atoms: _227  and  _228
REMARK   98  A    between atoms: _227  and  _230
REMARK   99  A    between atoms: _230  and  _231
REMARK  100  A    between atoms: _234  and  _236
REMARK  101  A    between atoms: _236  and  _237
REMARK  102  A    between atoms: _236  and  _239
REMARK  103  A    between atoms: _239  and  _240
REMARK  104  A    between atoms: _243  and  _245
REMARK  105  A    between atoms: _245  and  _246
REMARK  106  A    between atoms: _245  and  _248
REMARK  107  A    between atoms: _248  and  _249
REMARK  108  A    between atoms: _249  and  _250
REMARK  109  A    between atoms: _252  and  _254
REMARK  110  A    between atoms: _254  and  _255
REMARK  111  A    between atoms: _254  and  _257
REMARK  112  A    between atoms: _257  and  _258
REMARK  113  A    between atoms: _264  and  _266
REMARK  114  A    between atoms: _266  and  _267
REMARK  115  A    between atoms: _266  and  _269
REMARK  116  A    between atoms: _271  and  _273
REMARK  117  A    between atoms: _273  and  _274
REMARK  118  A    between atoms: _277  and  _279
REMARK  119  A    between atoms: _279  and  _280
REMARK  120  A    between atoms: _282  and  _284
REMARK  121  A    between atoms: _284  and  _285
REMARK  122  A    between atoms: _284  and  _287
REMARK  123  A    between atoms: _287  and  _288
REMARK  124  A    between atoms: _288  and  _289
REMARK  125  A    between atoms: _292  and  _294
REMARK  126  A    between atoms: _294  and  _295
REMARK  127  A    between atoms: _294  and  _297
REMARK  128  A    between atoms: _297  and  _298
REMARK  129  A    between atoms: _301  and  _303
REMARK  130  A    between atoms: _303  and  _304
REMARK  131  A    between atoms: _307  and  _309
REMARK  132  A    between atoms: _309  and  _310
REMARK  133  A    between atoms: _309  and  _312
REMARK  134  A    between atoms: _312  and  _313
REMARK  135  A    between atoms: _313  and  _436
REMARK  136  A    between atoms: _314  and  _316
REMARK  137  A    between atoms: _316  and  _317
REMARK  138  A    between atoms: _316  and  _319
REMARK  139  A    between atoms: _319  and  _320
REMARK  140  A    between atoms: _320  and  _321
REMARK  141  A    between atoms: _326  and  _328
REMARK  142  A    between atoms: _328  and  _329
REMARK  143  A    between atoms: _331  and  _333
REMARK  144  A    between atoms: _333  and  _334
REMARK  145  A    between atoms: _333  and  _336
REMARK  146  A    between atoms: _336  and  _337
REMARK  147  A    between atoms: _340  and  _342
REMARK  148  A    between atoms: _342  and  _343
REMARK  149  A    between atoms: _342  and  _345
REMARK  150  A    between atoms: _345  and  _346
REMARK  151  A    between atoms: _348  and  _350
REMARK  152  A    between atoms: _350  and  _351
REMARK  153  A    between atoms: _353  and  _355
REMARK  154  A    between atoms: _355  and  _356
REMARK  155  A    between atoms: _358  and  _360
REMARK  156  A    between atoms: _360  and  _361
REMARK  157  A    between atoms: _360  and  _363
REMARK  158  A    between atoms: _363  and  _364
REMARK  159  A    between atoms: _369  and  _371
REMARK  160  A    between atoms: _371  and  _372
REMARK  161  A    between atoms: _371  and  _374
REMARK  162  A    between atoms: _374  and  _375
REMARK  163  A    between atoms: _378  and  _380
REMARK  164  A    between atoms: _380  and  _381
REMARK  165  A    between atoms: _380  and  _383
REMARK  166  A    between atoms: _386  and  _388
REMARK  167  A    between atoms: _388  and  _389
REMARK  168  A    between atoms: _388  and  _391
REMARK  169  A    between atoms: _391  and  _392
REMARK  170  A    between atoms: _394  and  _396
REMARK  171  A    between atoms: _396  and  _397
REMARK  172  A    between atoms: _396  and  _399
REMARK  173  A    between atoms: _399  and  _400
REMARK  174  A    between atoms: _410  and  _412
REMARK  175  A    between atoms: _412  and  _413
REMARK  176  A    between atoms: _415  and  _417
REMARK  177  A    between atoms: _417  and  _418
REMARK  178  A    between atoms: _417  and  _420
REMARK  179  A    between atoms: _420  and  _421
REMARK  180  A    between atoms: _421  and  _422
REMARK  181  A    between atoms: _425  and  _427
REMARK  182  A    between atoms: _427  and  _428
REMARK  183  A    between atoms: _430  and  _432
REMARK  184  A    between atoms: _432  and  _433
REMARK  185  A    between atoms: _432  and  _435
REMARK  186  A    between atoms: _435  and  _436
REMARK  187  A    between atoms: _437  and  _439
REMARK  188  A    between atoms: _439  and  _440
REMARK  189  A    between atoms: _443  and  _445
REMARK  190  A    between atoms: _445  and  _446
REMARK  191  A    between atoms: _445  and  _448
REMARK  192  A    between atoms: _448  and  _449
REMARK  193  A    between atoms: _449  and  _450
REMARK  194  A    between atoms: _450  and  _451
REMARK  195  A    between atoms: _460  and  _462
REMARK  196  A    between atoms: _462  and  _463
REMARK  197  A    between atoms: _462  and  _465
REMARK  198  A    between atoms: _465  and  _466
REMARK  199  A    between atoms: _466  and  _467
REMARK  200  A    between atoms: _467  and  _468
REMARK  201  A    between atoms: _468  and  _469
REMARK  202  A    between atoms: _473  and  _475
REMARK  203  A    between atoms: _475  and  _476
REMARK  204  A    between atoms: _475  and  _478
REMARK  205  A    between atoms: _478  and  _479
REMARK  206  A    between atoms: _484  and  _485
REMARK  207  A    between atoms: _487  and  _489
REMARK  208  A    between atoms: _489  and  _490
REMARK  209  A    between atoms: _492  and  _494
REMARK  210  A    between atoms: _494  and  _495
REMARK  211  A    between atoms: _494  and  _497
REMARK  212  A    between atoms: _497  and  _498
REMARK  213  A    between atoms: _501  and  _503
REMARK  214  A    between atoms: _503  and  _504
REMARK  215  A    between atoms: _503  and  _506
REMARK  216  A    between atoms: _506  and  _507
REMARK  217  A    between atoms: _512  and  _513
REMARK  218  A    between atoms: _515  and  _517
REMARK  219  A    between atoms: _517  and  _518
REMARK  220  A    between atoms: _517  and  _520
REMARK  221  A    between atoms: _520  and  _521
REMARK                            x       y       z     vdW  Elec       q    Type
REMARK                         _______ _______ _______ _____ _____    ______ ____
ROOT
ATOM      1  C   GLY A   3      -2.937   2.830  28.012  0.00  0.00    +0.243 C 
ATOM      2  O   GLY A   3      -2.957   1.642  28.385  0.00  0.00    -0.273 OA
ATOM      3  N   ILE A   4      -2.754   3.181  26.739  0.00  0.00    -0.297 N 
ATOM      4  H   ILE A   4      -2.815   4.181  26.460  0.00  0.00    +0.150 HD
ENDROOT
BRANCH   3   5
ATOM      5  CA  ILE A   4      -2.468   2.158  25.739  0.00  0.00    +0.149 C 
BRANCH   5   6
ATOM      6  C   ILE A   4      -1.009   2.239  25.316  0.00  0.00    +0.241 C 
ATOM      7  N   TYR A   5      -0.370   1.077  25.313  0.00  0.00    -0.297 N 
ATOM      8  H   TYR A   5      -0.925   0.213  25.476  0.00  0.00    +0.150 HD
ATOM      9  O   ILE A   4      -0.485   3.339  25.012  0.00  0.00    -0.273 OA
BRANCH   7  10
ATOM     10  CA  TYR A   5       1.071   0.940  25.093  0.00  0.00    +0.153 C 
BRANCH  10  11
ATOM     11  C   TYR A   5       1.384  -0.037  23.972  0.00  0.00    +0.241 C 
ATOM     12  O   TYR A   5       0.678  -1.043  23.752  0.00  0.00    -0.273 OA
ATOM     13  N   THR A   6       2.443   0.279  23.233  0.00  0.00    -0.296 N 
ATOM     14  H   THR A   6       2.930   1.183  23.398  0.00  0.00    +0.150 HD
BRANCH  13  15
ATOM     15  CA  THR A   6       2.924  -0.606  22.213  0.00  0.00    +0.164 C 
BRANCH  15  16
ATOM     16  C   THR A   6       3.539  -1.797  22.921  0.00  0.00    +0.229 C 
ATOM     17  O   THR A   6       4.365  -1.587  23.822  0.00  0.00    -0.286 OA
ENDBRANCH  15  16
BRANCH  15  18
ATOM     18  CB  THR A   6       3.961   0.078  21.316  0.00  0.00    +0.136 C 
ATOM     19  CG2 THR A   6       4.339  -0.847  20.146  0.00  0.00    +0.034 C 
BRANCH  18  20
ATOM     20  OG1 THR A   6       3.396   1.287  20.813  0.00  0.00    -0.382 OA
ATOM     21  HG1 THR A   6       4.056   1.741  20.231  0.00  0.00    +0.210 HD
ENDBRANCH  18  20
ENDBRANCH  15  18
ENDBRANCH  13  15
ENDBRANCH  10  11
BRANCH  10  22
ATOM     22  CB  TYR A   5       1.791   0.420  26.351  0.00  0.00    +0.055 C 
BRANCH  22  23
ATOM     23  CG  TYR A   5       1.668   1.308  27.558  0.00  0.00    -0.020 A 
ATOM     24  CD2 TYR A   5       0.494   1.312  28.329  0.00  0.00    -0.001 A 
ATOM     25  CE2 TYR A   5       0.362   2.154  29.428  0.00  0.00    +0.036 A 
ATOM     26  CZ  TYR A   5       1.447   2.991  29.786  0.00  0.00    +0.134 A 
ATOM     27  CE1 TYR A   5       2.609   2.988  29.066  0.00  0.00    +0.036 A 
ATOM     28  CD1 TYR A   5       2.708   2.176  27.931  0.00  0.00    -0.001 A 
BRANCH  26  29
ATOM     29  OH  TYR A   5       1.384   3.796  30.883  0.00  0.00    -0.506 OA
ATOM     30  HH  TYR A   5       0.629   4.429  30.784  0.00  0.00    +0.292 HD
ENDBRANCH  26  29
ENDBRANCH  22  23
ENDBRANCH  10  22
ENDBRANCH   7  10
ENDBRANCH   5   6
BRANCH   5  31
ATOM     31  CB  ILE A   4      -3.364   2.248  24.465  0.00  0.00    +0.027 C 
ATOM     32  CG2 ILE A   4      -3.216   0.969  23.667  0.00  0.00    +0.002 C 
BRANCH  31  33
ATOM     33  CG1 ILE A   4      -4.838   2.541  24.832  0.00  0.00    +0.002 C 
ATOM     34  CD1 ILE A   4      -5.534   1.464  25.618  0.00  0.00    +0.000 C 
ENDBRANCH  31  33
ENDBRANCH   5  31
ENDBRANCH   3   5
BRANCH   1  35
ATOM     35  CA  GLY A   3      -3.194   3.944  29.004  0.00  0.00    +0.176 C 
BRANCH  35  37
ATOM     36  C   TYR A   2      -5.568   3.552  29.425  0.00  0.00    +0.241 C 
ATOM     37  N   GLY A   3      -4.307   3.514  29.849  0.00  0.00    -0.295 N 
ATOM     38  H   GLY A   3      -4.108   3.168  30.809  0.00  0.00    +0.150 HD
ATOM     39  O   TYR A   2      -5.908   4.048  28.360  0.00  0.00    -0.273 OA
BRANCH  36  40
ATOM     40  CA  TYR A   2      -6.618   2.929  30.345  0.00  0.00    +0.153 C 
BRANCH  40  43
ATOM     41  C   LYS A   1      -8.761   4.082  30.710  0.00  0.00    +0.238 C 
ATOM     42  O   LYS A   1      -8.457   4.458  31.844  0.00  0.00    -0.274 OA
ATOM     43  N   TYR A   2      -7.956   3.365  29.930  0.00  0.00    -0.297 N 
ATOM     44  H   TYR A   2      -8.291   3.101  28.981  0.00  0.00    +0.150 HD
BRANCH  41  45
ATOM     45  CA  LYS A   1     -10.135   4.410  30.131  0.00  0.00    +0.145 C 
BRANCH  45  46
ATOM     46  N   LYS A   1     -11.144   4.522  31.205  0.00  0.00    -0.238 NA
ATOM     47  H   LYS A   1     -10.997   5.220  31.962  0.00  0.00    +0.142 HD
ENDBRANCH  45  46
BRANCH  45  48
ATOM     48  CB  LYS A   1     -10.026   5.693  29.331  0.00  0.00    +0.026 C 
BRANCH  48  49
ATOM     49  CG  LYS A   1     -11.328   6.134  28.641  0.00  0.00    -0.000 C 
BRANCH  49  50
ATOM     50  CD  LYS A   1     -11.703   5.221  27.486  0.00  0.00    -0.024 C 
BRANCH  50  51
ATOM     51  CE  LYS A   1     -13.019   5.668  26.852  0.00  0.00    -0.086 C 
BRANCH  51  52
ATOM     52  NZ  LYS A   1     -13.425   4.805  25.689  0.00  0.00    +0.380 N 
ATOM     53  HZ1 LYS A   1     -13.543   3.823  26.012  0.00  0.00    -0.089 HD
ATOM     54  HZ2 LYS A   1     -14.323   5.153  25.298  0.00  0.00    -0.089 HD
ATOM     55  HZ3 LYS A   1     -12.688   4.844  24.956  0.00  0.00    -0.089 HD
ENDBRANCH  51  52
ENDBRANCH  50  51
ENDBRANCH  49  50
ENDBRANCH  48  49
ENDBRANCH  45  48
ENDBRANCH  41  45
ENDBRANCH  40  43
BRANCH  40  56
ATOM     56  CB  TYR A   2      -6.509   1.406  30.314  0.00  0.00    +0.055 C 
BRANCH  56  57
ATOM     57  CG  TYR A   2      -7.493   0.733  31.239  0.00  0.00    -0.020 A 
ATOM     58  CD2 TYR A   2      -7.306   0.787  32.606  0.00  0.00    -0.001 A 
ATOM     59  CE2 TYR A   2      -8.198   0.189  33.471  0.00  0.00    +0.036 A 
ATOM     60  CZ  TYR A   2      -9.323  -0.415  32.957  0.00  0.00    +0.134 A 
ATOM     61  CE1 TYR A   2      -9.560  -0.455  31.593  0.00  0.00    +0.036 A 
ATOM     62  CD1 TYR A   2      -8.645   0.125  30.742  0.00  0.00    -0.001 A 
BRANCH  60  63
ATOM     63  OH  TYR A   2     -10.201  -1.000  33.827  0.00  0.00    -0.506 OA
ATOM     64  HH  TYR A   2     -11.092  -0.579  33.728  0.00  0.00    +0.292 HD
ENDBRANCH  60  63
ENDBRANCH  56  57
ENDBRANCH  40  56
ENDBRANCH  36  40
ENDBRANCH  35  37
ENDBRANCH   1  35
TORSDOF 27
REMARK  Name = ../refined-set-2016/2xc4/2xc4_pocket.pdb
REMARK  221 active torsions:
REMARK  status: ('A' for Active; 'I' for Inactive)
REMARK    1  A    between atoms: _1  and  _5
REMARK    2  A    between atoms: _5  and  _6
REMARK    3  A    between atoms: _5  and  _8
REMARK    4  A    between atoms: _8  and  _9
REMARK    5  A    between atoms: _12  and  _14
REMARK    6  A    between atoms: _14  and  _15
REMARK    7  A    between atoms: _14  and  _17
REMARK    8  A    between atoms: _20  and  _22
REMARK    9  A    between atoms: _22  and  _23
REMARK   10  A    between atoms: _22  and  _25
REMARK   11  A    between atoms: _25  and  _26
REMARK   12  A    between atoms: _31  and  _33
REMARK   13  A    between atoms: _33  and  _34
REMARK   14  A    between atoms: _33  and  _36
REMARK   15  A    between atoms: _36  and  _37
REMARK   16  A    between atoms: _37  and  _38
REMARK   17  A    between atoms: _43  and  _45
REMARK   18  A    between atoms: _45  and  _46
REMARK   19  A    between atoms: _45  and  _48
REMARK   20  A    between atoms: _48  and  _49
REMARK   21  A    between atoms: _52  and  _54
REMARK   22  A    between atoms: _54  and  _55
REMARK   23  A    between atoms: _54  and  _57
REMARK   24  A    between atoms: _57  and  _58
REMARK   25  A    between atoms: _58  and  _59
REMARK   26  A    between atoms: _59  and  _60
REMARK   27  A    between atoms: _60  and  _61
REMARK   28  A    between atoms: _65  and  _67
REMARK   29  A    between atoms: _67  and  _68
REMARK   30  A    between atoms: _67  and  _70
REMARK   31  A    between atoms: _70  and  _71
REMARK   32  A    between atoms: _71  and  _72
REMARK   33  A    between atoms: _75  and  _77
REMARK   34  A    between atoms: _77  and  _78
REMARK   35  A    between atoms: _77  and  _80
REMARK   36  A    between atoms: _80  and  _81
REMARK   37  A    between atoms: _84  and  _86
REMARK   38  A    between atoms: _86  and  _87
REMARK   39  A    between atoms: _86  and  _89
REMARK   40  A    between atoms: _89  and  _90
REMARK   41  A    between atoms: _95  and  _96
REMARK   42  A    between atoms: _98  and  _100
REMARK   43  A    between atoms: _100  and  _101
REMARK   44  A    between atoms: _100  and  _103
REMARK   45  A    between atoms: _103  and  _104
REMARK   46  A    between atoms: _107  and  _109
REMARK   47  A    between atoms: _109  and  _110
REMARK   48  A    between atoms: _109  and  _112
REMARK   49  A    between atoms: _112  and  _113
REMARK   50  A    between atoms: _116  and  _118
REMARK   51  A    between atoms: _118  and  _119
REMARK   52  A    between atoms: _118  and  _121
REMARK   53  A    between atoms: _124  and  _126
REMARK   54  A    between atoms: _126  and  _127
REMARK   55  A    between atoms: _126  and  _129
REMARK   56  A    between atoms: _129  and  _130
REMARK   57  A    between atoms: _130  and  _131
REMARK   58  A    between atoms: _131  and  _132
REMARK   59  A    between atoms: _141  and  _143
REMARK   60  A    between atoms: _143  and  _144
REMARK   61  A    between atoms: _143  and  _146
REMARK   62  A    between atoms: _146  and  _147
REMARK   63  A    between atoms: _152  and  _154
REMARK   64  A    between atoms: _154  and  _155
REMARK   65  A    between atoms: _154  and  _157
REMARK   66  A    between atoms: _157  and  _158
REMARK   67  A    between atoms: _158  and  _159
REMARK   68  A    between atoms: _162  and  _164
REMARK   69  A    between atoms: _164  and  _165
REMARK   70  A    between atoms: _164  and  _167
REMARK   71  A    between atoms: _167  and  _168
REMARK   72  A    between atoms: _168  and  _169
REMARK   73  A    between atoms: _169  and  _170
REMARK   74  A    between atoms: _170  and  _171
REMARK   75  A    between atoms: _175  and  _177
REMARK   76  A    between atoms: _177  and  _178
REMARK   77  A    between atoms: _180  and  _182
REMARK   78  A    between atoms: _182  and  _183
REMARK   79  A    between atoms: _182  and  _185
REMARK   80  A    between atoms: _188  and  _190
REMARK   81  A    between atoms: _190  and  _191
REMARK   82  A    between atoms: _190  and  _193
REMARK   83  A    between atoms: _193  and  _194
REMARK   84  A    between atoms: _196  and  _198
REMARK   85  A    between atoms: _198  and  _199
REMARK   86  A    between atoms: _198  and  _201
REMARK   87  A    between atoms: _201  and  _202
REMARK   88  A    between atoms: _204  and  _206
REMARK   89  A    between atoms: _206  and  _207
REMARK   90  A    between atoms: _206  and  _209
REMARK   91  A    between atoms: _209  and  _210
REMARK   92  A    between atoms: _216  and  _218
REMARK   93  A    between atoms: _218  and  _219
REMARK   94  A    between atoms: _218  and  _221
REMARK   95  A    between atoms: _221  and  _222
REMARK   96  A    between atoms: _225  and  _227
REMARK   97  A    between atoms: _227  and  _228
REMARK   98  A    between atoms: _227  and  _230
REMARK   99  A    between atoms: _230  and  _231
REMARK  100  A    between atoms: _234  and  _236
REMARK  101  A    between atoms: _236  and  _237
REMARK  102  A    between atoms: _236  and  _239
REMARK  103  A    between atoms: _239  and  _240
REMARK  104  A    between atoms: _243  and  _245
REMARK  105  A    between atoms: _245  and  _246
REMARK  106  A    between atoms: _245  and  _248
REMARK  107  A    between atoms: _248  and  _249
REMARK  108  A    between atoms: _249  and  _250
REMARK  109  A    between atoms: _252  and  _254
REMARK  110  A    between atoms: _254  and  _255
REMARK  111  A    between atoms: _254  and  _257
REMARK  112  A    between atoms: _257  and  _258
REMARK  113  A    between atoms: _264  and  _266
REMARK  114  A    between atoms: _266  and  _267
REMARK  115  A    between atoms: _266  and  _269
REMARK  116  A    between atoms: _271  and  _273
REMARK  117  A    between atoms: _273  and  _274
REMARK  118  A    between atoms: _277  and  _279
REMARK  119  A    between atoms: _279  and  _280
REMARK  120  A    between atoms: _282  and  _284
REMARK  121  A    between atoms: _284  and  _285
REMARK  122  A    between atoms: _284  and  _287
REMARK  123  A    between atoms: _287  and  _288
REMARK  124  A    between atoms: _288  and  _289
REMARK  125  A    between atoms: _292  and  _294
REMARK  126  A    between atoms: _294  and  _295
REMARK  127  A    between atoms: _294  and  _297
REMARK  128  A    between atoms: _297  and  _298
REMARK  129  A    between atoms: _301  and  _303
REMARK  130  A    between atoms: _303  and  _304
REMARK  131  A    between atoms: _307  and  _309
REMARK  132  A    between atoms: _309  and  _310
REMARK  133  A    between atoms: _309  and  _312
REMARK  134  A    between atoms: _312  and  _313
REMARK  135  A    between atoms: _313  and  _436
REMARK  136  A    between atoms: _314  and  _316
REMARK  137  A    between atoms: _316  and  _317
REMARK  138  A    between atoms: _316  and  _319
REMARK  139  A    between atoms: _319  and  _320
REMARK  140  A    between atoms: _320  and  _321
REMARK  141  A    between atoms: _326  and  _328
REMARK  142  A    between atoms: _328  and  _329
REMARK  143  A    between atoms: _331  and  _333
REMARK  144  A    between atoms: _333  and  _334
REMARK  145  A    between atoms: _333  and  _336
REMARK  146  A    between atoms: _336  and  _337
REMARK  147  A    between atoms: _340  and  _342
REMARK  148  A    between atoms: _342  and  _343
REMARK  149  A    between atoms: _342  and  _345
REMARK  150  A    between atoms: _345  and  _346
REMARK  151  A    between atoms: _348  and  _350
REMARK  152  A    between atoms: _350  and  _351
REMARK  153  A    between atoms: _353  and  _355
REMARK  154  A    between atoms: _355  and  _356
REMARK  155  A    between atoms: _358  and  _360
REMARK  156  A    between atoms: _360  and  _361
REMARK  157  A    between atoms: _360  and  _363
REMARK  158  A    between atoms: _363  and  _364
REMARK  159  A    between atoms: _369  and  _371
REMARK  160  A    between atoms: _371  and  _372
REMARK  161  A    between atoms: _371  and  _374
REMARK  162  A    between atoms: _374  and  _375
REMARK  163  A    between atoms: _378  and  _380
REMARK  164  A    between atoms: _380  and  _381
REMARK  165  A    between atoms: _380  and  _383
REMARK  166  A    between atoms: _386  and  _388
REMARK  167  A    between atoms: _388  and  _389
REMARK  168  A    between atoms: _388  and  _391
REMARK  169  A    between atoms: _391  and  _392
REMARK  170  A    between atoms: _394  and  _396
REMARK  171  A    between atoms: _396  and  _397
REMARK  172  A    between atoms: _396  and  _399
REMARK  173  A    between atoms: _399  and  _400
REMARK  174  A    between atoms: _410  and  _412
REMARK  175  A    between atoms: _412  and  _413
REMARK  176  A    between atoms: _415  and  _417
REMARK  177  A    between atoms: _417  and  _418
REMARK  178  A    between atoms: _417  and  _420
REMARK  179  A    between atoms: _420  and  _421
REMARK  180  A    between atoms: _421  and  _422
REMARK  181  A    between atoms: _425  and  _427
REMARK  182  A    between atoms: _427  and  _428
REMARK  183  A    between atoms: _430  and  _432
REMARK  184  A    between atoms: _432  and  _433
REMARK  185  A    between atoms: _432  and  _435
REMARK  186  A    between atoms: _435  and  _436
REMARK  187  A    between atoms: _437  and  _439
REMARK  188  A    between atoms: _439  and  _440
REMARK  189  A    between atoms: _443  and  _445
REMARK  190  A    between atoms: _445  and  _446
REMARK  191  A    between atoms: _445  and  _448
REMARK  192  A    between atoms: _448  and  _449
REMARK  193  A    between atoms: _449  and  _450
REMARK  194  A    between atoms: _450  and  _451
REMARK  195  A    between atoms: _460  and  _462
REMARK  196  A    between atoms: _462  and  _463
REMARK  197  A    between atoms: _462  and  _465
REMARK  198  A    between atoms: _465  and  _466
REMARK  199  A    between atoms: _466  and  _467
REMARK  200  A    between atoms: _467  and  _468
REMARK  201  A    between atoms: _468  and  _469
REMARK  202  A    between atoms: _473  and  _475
REMARK  203  A    between atoms: _475  and  _476
REMARK  204  A    between atoms: _475  and  _478
REMARK  205  A    between atoms: _478  and  _479
REMARK  206  A    between atoms: _484  and  _485
REMARK  207  A    between atoms: _487  and  _489
REMARK  208  A    between atoms: _489  and  _490
REMARK  209  A    between atoms: _492  and  _494
REMARK  210  A    between atoms: _494  and  _495
REMARK  211  A    between atoms: _494  and  _497
REMARK  212  A    between atoms: _497  and  _498
REMARK  213  A    between atoms: _501  and  _503
REMARK  214  A    between atoms: _503  and  _504
REMARK  215  A    between atoms: _503  and  _506
REMARK  216  A    between atoms: _506  and  _507
REMARK  217  A    between atoms: _512  and  _513
REMARK  218  A    between atoms: _515  and  _517
REMARK  219  A    between atoms: _517  and  _518
REMARK  220  A    between atoms: _517  and  _520
REMARK  221  A    between atoms: _520  and  _521
REMARK                            x       y       z     vdW  Elec       q    Type
REMARK                         _______ _______ _______ _____ _____    ______ ____
ROOT
ATOM      1  O   HOH     1      -9.320  10.833  19.676  0.00  0.00    +0.000 OA
ENDROOT
TORSDOF 0
REMARK  Name = ../refined-set-2016/2xc4/2xc4_pocket.pdb
REMARK  221 active torsions:
REMARK  status: ('A' for Active; 'I' for Inactive)
REMARK    1  A    between atoms: _1  and  _5
REMARK    2  A    between atoms: _5  and  _6
REMARK    3  A    between atoms: _5  and  _8
REMARK    4  A    between atoms: _8  and  _9
REMARK    5  A    between atoms: _12  and  _14
REMARK    6  A    between atoms: _14  and  _15
REMARK    7  A    between atoms: _14  and  _17
REMARK    8  A    between atoms: _20  and  _22
REMARK    9  A    between atoms: _22  and  _23
REMARK   10  A    between atoms: _22  and  _25
REMARK   11  A    between atoms: _25  and  _26
REMARK   12  A    between atoms: _31  and  _33
REMARK   13  A    between atoms: _33  and  _34
REMARK   14  A    between atoms: _33  and  _36
REMARK   15  A    between atoms: _36  and  _37
REMARK   16  A    between atoms: _37  and  _38
REMARK   17  A    between atoms: _43  and  _45
REMARK   18  A    between atoms: _45  and  _46
REMARK   19  A    between atoms: _45  and  _48
REMARK   20  A    between atoms: _48  and  _49
REMARK   21  A    between atoms: _52  and  _54
REMARK   22  A    between atoms: _54  and  _55
REMARK   23  A    between atoms: _54  and  _57
REMARK   24  A    between atoms: _57  and  _58
REMARK   25  A    between atoms: _58  and  _59
REMARK   26  A    between atoms: _59  and  _60
REMARK   27  A    between atoms: _60  and  _61
REMARK   28  A    between atoms: _65  and  _67
REMARK   29  A    between atoms: _67  and  _68
REMARK   30  A    between atoms: _67  and  _70
REMARK   31  A    between atoms: _70  and  _71
REMARK   32  A    between atoms: _71  and  _72
REMARK   33  A    between atoms: _75  and  _77
REMARK   34  A    between atoms: _77  and  _78
REMARK   35  A    between atoms: _77  and  _80
REMARK   36  A    between atoms: _80  and  _81
REMARK   37  A    between atoms: _84  and  _86
REMARK   38  A    between atoms: _86  and  _87
REMARK   39  A    between atoms: _86  and  _89
REMARK   40  A    between atoms: _89  and  _90
REMARK   41  A    between atoms: _95  and  _96
REMARK   42  A    between atoms: _98  and  _100
REMARK   43  A    between atoms: _100  and  _101
REMARK   44  A    between atoms: _100  and  _103
REMARK   45  A    between atoms: _103  and  _104
REMARK   46  A    between atoms: _107  and  _109
REMARK   47  A    between atoms: _109  and  _110
REMARK   48  A    between atoms: _109  and  _112
REMARK   49  A    between atoms: _112  and  _113
REMARK   50  A    between atoms: _116  and  _118
REMARK   51  A    between atoms: _118  and  _119
REMARK   52  A    between atoms: _118  and  _121
REMARK   53  A    between atoms: _124  and  _126
REMARK   54  A    between atoms: _126  and  _127
REMARK   55  A    between atoms: _126  and  _129
REMARK   56  A    between atoms: _129  and  _130
REMARK   57  A    between atoms: _130  and  _131
REMARK   58  A    between atoms: _131  and  _132
REMARK   59  A    between atoms: _141  and  _143
REMARK   60  A    between atoms: _143  and  _144
REMARK   61  A    between atoms: _143  and  _146
REMARK   62  A    between atoms: _146  and  _147
REMARK   63  A    between atoms: _152  and  _154
REMARK   64  A    between atoms: _154  and  _155
REMARK   65  A    between atoms: _154  and  _157
REMARK   66  A    between atoms: _157  and  _158
REMARK   67  A    between atoms: _158  and  _159
REMARK   68  A    between atoms: _162  and  _164
REMARK   69  A    between atoms: _164  and  _165
REMARK   70  A    between atoms: _164  and  _167
REMARK   71  A    between atoms: _167  and  _168
REMARK   72  A    between atoms: _168  and  _169
REMARK   73  A    between atoms: _169  and  _170
REMARK   74  A    between atoms: _170  and  _171
REMARK   75  A    between atoms: _175  and  _177
REMARK   76  A    between atoms: _177  and  _178
REMARK   77  A    between atoms: _180  and  _182
REMARK   78  A    between atoms: _182  and  _183
REMARK   79  A    between atoms: _182  and  _185
REMARK   80  A    between atoms: _188  and  _190
REMARK   81  A    between atoms: _190  and  _191
REMARK   82  A    between atoms: _190  and  _193
REMARK   83  A    between atoms: _193  and  _194
REMARK   84  A    between atoms: _196  and  _198
REMARK   85  A    between atoms: _198  and  _199
REMARK   86  A    between atoms: _198  and  _201
REMARK   87  A    between atoms: _201  and  _202
REMARK   88  A    between atoms: _204  and  _206
REMARK   89  A    between atoms: _206  and  _207
REMARK   90  A    between atoms: _206  and  _209
REMARK   91  A    between atoms: _209  and  _210
REMARK   92  A    between atoms: _216  and  _218
REMARK   93  A    between atoms: _218  and  _219
REMARK   94  A    between atoms: _218  and  _221
REMARK   95  A    between atoms: _221  and  _222
REMARK   96  A    between atoms: _225  and  _227
REMARK   97  A    between atoms: _227  and  _228
REMARK   98  A    between atoms: _227  and  _230
REMARK   99  A    between atoms: _230  and  _231
REMARK  100  A    between atoms: _234  and  _236
REMARK  101  A    between atoms: _236  and  _237
REMARK  102  A    between atoms: _236  and  _239
REMARK  103  A    between atoms: _239  and  _240
REMARK  104  A    between atoms: _243  and  _245
REMARK  105  A    between atoms: _245  and  _246
REMARK  106  A    between atoms: _245  and  _248
REMARK  107  A    between atoms: _248  and  _249
REMARK  108  A    between atoms: _249  and  _250
REMARK  109  A    between atoms: _252  and  _254
REMARK  110  A    between atoms: _254  and  _255
REMARK  111  A    between atoms: _254  and  _257
REMARK  112  A    between atoms: _257  and  _258
REMARK  113  A    between atoms: _264  and  _266
REMARK  114  A    between atoms: _266  and  _267
REMARK  115  A    between atoms: _266  and  _269
REMARK  116  A    between atoms: _271  and  _273
REMARK  117  A    between atoms: _273  and  _274
REMARK  118  A    between atoms: _277  and  _279
REMARK  119  A    between atoms: _279  and  _280
REMARK  120  A    between atoms: _282  and  _284
REMARK  121  A    between atoms: _284  and  _285
REMARK  122  A    between atoms: _284  and  _287
REMARK  123  A    between atoms: _287  and  _288
REMARK  124  A    between atoms: _288  and  _289
REMARK  125  A    between atoms: _292  and  _294
REMARK  126  A    between atoms: _294  and  _295
REMARK  127  A    between atoms: _294  and  _297
REMARK  128  A    between atoms: _297  and  _298
REMARK  129  A    between atoms: _301  and  _303
REMARK  130  A    between atoms: _303  and  _304
REMARK  131  A    between atoms: _307  and  _309
REMARK  132  A    between atoms: _309  and  _310
REMARK  133  A    between atoms: _309  and  _312
REMARK  134  A    between atoms: _312  and  _313
REMARK  135  A    between atoms: _313  and  _436
REMARK  136  A    between atoms: _314  and  _316
REMARK  137  A    between atoms: _316  and  _317
REMARK  138  A    between atoms: _316  and  _319
REMARK  139  A    between atoms: _319  and  _320
REMARK  140  A    between atoms: _320  and  _321
REMARK  141  A    between atoms: _326  and  _328
REMARK  142  A    between atoms: _328  and  _329
REMARK  143  A    between atoms: _331  and  _333
REMARK  144  A    between atoms: _333  and  _334
REMARK  145  A    between atoms: _333  and  _336
REMARK  146  A    between atoms: _336  and  _337
REMARK  147  A    between atoms: _340  and  _342
REMARK  148  A    between atoms: _342  and  _343
REMARK  149  A    between atoms: _342  and  _345
REMARK  150  A    between atoms: _345  and  _346
REMARK  151  A    between atoms: _348  and  _350
REMARK  152  A    between atoms: _350  and  _351
REMARK  153  A    between atoms: _353  and  _355
REMARK  154  A    between atoms: _355  and  _356
REMARK  155  A    between atoms: _358  and  _360
REMARK  156  A    between atoms: _360  and  _361
REMARK  157  A    between atoms: _360  and  _363
REMARK  158  A    between atoms: _363  and  _364
REMARK  159  A    between atoms: _369  and  _371
REMARK  160  A    between atoms: _371  and  _372
REMARK  161  A    between atoms: _371  and  _374
REMARK  162  A    between atoms: _374  and  _375
REMARK  163  A    between atoms: _378  and  _380
REMARK  164  A    between atoms: _380  and  _381
REMARK  165  A    between atoms: _380  and  _383
REMARK  166  A    between atoms: _386  and  _388
REMARK  167  A    between atoms: _388  and  _389
REMARK  168  A    between atoms: _388  and  _391
REMARK  169  A    between atoms: _391  and  _392
REMARK  170  A    between atoms: _394  and  _396
REMARK  171  A    between atoms: _396  and  _397
REMARK  172  A    between atoms: _396  and  _399
REMARK  173  A    between atoms: _399  and  _400
REMARK  174  A    between atoms: _410  and  _412
REMARK  175  A    between atoms: _412  and  _413
REMARK  176  A    between atoms: _415  and  _417
REMARK  177  A    between atoms: _417  and  _418
REMARK  178  A    between atoms: _417  and  _420
REMARK  179  A    between atoms: _420  and  _421
REMARK  180  A    between atoms: _421  and  _422
REMARK  181  A    between atoms: _425  and  _427
REMARK  182  A    between atoms: _427  and  _428
REMARK  183  A    between atoms: _430  and  _432
REMARK  184  A    between atoms: _432  and  _433
REMARK  185  A    between atoms: _432  and  _435
REMARK  186  A    between atoms: _435  and  _436
REMARK  187  A    between atoms: _437  and  _439
REMARK  188  A    between atoms: _439  and  _440
REMARK  189  A    between atoms: _443  and  _445
REMARK  190  A    between atoms: _445  and  _446
REMARK  191  A    between atoms: _445  and  _448
REMARK  192  A    between atoms: _448  and  _449
REMARK  193  A    between atoms: _449  and  _450
REMARK  194  A    between atoms: _450  and  _451
REMARK  195  A    between atoms: _460  and  _462
REMARK  196  A    between atoms: _462  and  _463
REMARK  197  A    between atoms: _462  and  _465
REMARK  198  A    between atoms: _465  and  _466
REMARK  199  A    between atoms: _466  and  _467
REMARK  200  A    between atoms: _467  and  _468
REMARK  201  A    between atoms: _468  and  _469
REMARK  202  A    between atoms: _473  and  _475
REMARK  203  A    between atoms: _475  and  _476
REMARK  204  A    between atoms: _475  and  _478
REMARK  205  A    between atoms: _478  and  _479
REMARK  206  A    between atoms: _484  and  _485
REMARK  207  A    between atoms: _487  and  _489
REMARK  208  A    between atoms: _489  and  _490
REMARK  209  A    between atoms: _492  and  _494
REMARK  210  A    between atoms: _494  and  _495
REMARK  211  A    between atoms: _494  and  _497
REMARK  212  A    between atoms: _497  and  _498
REMARK  213  A    between atoms: _501  and  _503
REMARK  214  A    between atoms: _503  and  _504
REMARK  215  A    between atoms: _503  and  _506
REMARK  216  A    between atoms: _506  and  _507
REMARK  217  A    between atoms: _512  and  _513
REMARK  218  A    between atoms: _515  and  _517
REMARK  219  A    between atoms: _517  and  _518
REMARK  220  A    between atoms: _517  and  _520
REMARK  221  A    between atoms: _520  and  _521
REMARK                            x       y       z     vdW  Elec       q    Type
REMARK                         _______ _______ _______ _____ _____    ______ ____
ROOT
ATOM      1  O   HOH     1       3.638  15.670  21.085  0.00  0.00    +0.000 OA
ENDROOT
TORSDOF 0
REMARK  Name = ../refined-set-2016/2xc4/2xc4_pocket.pdb
REMARK  221 active torsions:
REMARK  status: ('A' for Active; 'I' for Inactive)
REMARK    1  A    between atoms: _1  and  _5
REMARK    2  A    between atoms: _5  and  _6
REMARK    3  A    between atoms: _5  and  _8
REMARK    4  A    between atoms: _8  and  _9
REMARK    5  A    between atoms: _12  and  _14
REMARK    6  A    between atoms: _14  and  _15
REMARK    7  A    between atoms: _14  and  _17
REMARK    8  A    between atoms: _20  and  _22
REMARK    9  A    between atoms: _22  and  _23
REMARK   10  A    between atoms: _22  and  _25
REMARK   11  A    between atoms: _25  and  _26
REMARK   12  A    between atoms: _31  and  _33
REMARK   13  A    between atoms: _33  and  _34
REMARK   14  A    between atoms: _33  and  _36
REMARK   15  A    between atoms: _36  and  _37
REMARK   16  A    between atoms: _37  and  _38
REMARK   17  A    between atoms: _43  and  _45
REMARK   18  A    between atoms: _45  and  _46
REMARK   19  A    between atoms: _45  and  _48
REMARK   20  A    between atoms: _48  and  _49
REMARK   21  A    between atoms: _52  and  _54
REMARK   22  A    between atoms: _54  and  _55
REMARK   23  A    between atoms: _54  and  _57
REMARK   24  A    between atoms: _57  and  _58
REMARK   25  A    between atoms: _58  and  _59
REMARK   26  A    between atoms: _59  and  _60
REMARK   27  A    between atoms: _60  and  _61
REMARK   28  A    between atoms: _65  and  _67
REMARK   29  A    between atoms: _67  and  _68
REMARK   30  A    between atoms: _67  and  _70
REMARK   31  A    between atoms: _70  and  _71
REMARK   32  A    between atoms: _71  and  _72
REMARK   33  A    between atoms: _75  and  _77
REMARK   34  A    between atoms: _77  and  _78
REMARK   35  A    between atoms: _77  and  _80
REMARK   36  A    between atoms: _80  and  _81
REMARK   37  A    between atoms: _84  and  _86
REMARK   38  A    between atoms: _86  and  _87
REMARK   39  A    between atoms: _86  and  _89
REMARK   40  A    between atoms: _89  and  _90
REMARK   41  A    between atoms: _95  and  _96
REMARK   42  A    between atoms: _98  and  _100
REMARK   43  A    between atoms: _100  and  _101
REMARK   44  A    between atoms: _100  and  _103
REMARK   45  A    between atoms: _103  and  _104
REMARK   46  A    between atoms: _107  and  _109
REMARK   47  A    between atoms: _109  and  _110
REMARK   48  A    between atoms: _109  and  _112
REMARK   49  A    between atoms: _112  and  _113
REMARK   50  A    between atoms: _116  and  _118
REMARK   51  A    between atoms: _118  and  _119
REMARK   52  A    between atoms: _118  and  _121
REMARK   53  A    between atoms: _124  and  _126
REMARK   54  A    between atoms: _126  and  _127
REMARK   55  A    between atoms: _126  and  _129
REMARK   56  A    between atoms: _129  and  _130
REMARK   57  A    between atoms: _130  and  _131
REMARK   58  A    between atoms: _131  and  _132
REMARK   59  A    between atoms: _141  and  _143
REMARK   60  A    between atoms: _143  and  _144
REMARK   61  A    between atoms: _143  and  _146
REMARK   62  A    between atoms: _146  and  _147
REMARK   63  A    between atoms: _152  and  _154
REMARK   64  A    between atoms: _154  and  _155
REMARK   65  A    between atoms: _154  and  _157
REMARK   66  A    between atoms: _157  and  _158
REMARK   67  A    between atoms: _158  and  _159
REMARK   68  A    between atoms: _162  and  _164
REMARK   69  A    between atoms: _164  and  _165
REMARK   70  A    between atoms: _164  and  _167
REMARK   71  A    between atoms: _167  and  _168
REMARK   72  A    between atoms: _168  and  _169
REMARK   73  A    between atoms: _169  and  _170
REMARK   74  A    between atoms: _170  and  _171
REMARK   75  A    between atoms: _175  and  _177
REMARK   76  A    between atoms: _177  and  _178
REMARK   77  A    between atoms: _180  and  _182
REMARK   78  A    between atoms: _182  and  _183
REMARK   79  A    between atoms: _182  and  _185
REMARK   80  A    between atoms: _188  and  _190
REMARK   81  A    between atoms: _190  and  _191
REMARK   82  A    between atoms: _190  and  _193
REMARK   83  A    between atoms: _193  and  _194
REMARK   84  A    between atoms: _196  and  _198
REMARK   85  A    between atoms: _198  and  _199
REMARK   86  A    between atoms: _198  and  _201
REMARK   87  A    between atoms: _201  and  _202
REMARK   88  A    between atoms: _204  and  _206
REMARK   89  A    between atoms: _206  and  _207
REMARK   90  A    between atoms: _206  and  _209
REMARK   91  A    between atoms: _209  and  _210
REMARK   92  A    between atoms: _216  and  _218
REMARK   93  A    between atoms: _218  and  _219
REMARK   94  A    between atoms: _218  and  _221
REMARK   95  A    between atoms: _221  and  _222
REMARK   96  A    between atoms: _225  and  _227
REMARK   97  A    between atoms: _227  and  _228
REMARK   98  A    between atoms: _227  and  _230
REMARK   99  A    between atoms: _230  and  _231
REMARK  100  A    between atoms: _234  and  _236
REMARK  101  A    between atoms: _236  and  _237
REMARK  102  A    between atoms: _236  and  _239
REMARK  103  A    between atoms: _239  and  _240
REMARK  104  A    between atoms: _243  and  _245
REMARK  105  A    between atoms: _245  and  _246
REMARK  106  A    between atoms: _245  and  _248
REMARK  107  A    between atoms: _248  and  _249
REMARK  108  A    between atoms: _249  and  _250
REMARK  109  A    between atoms: _252  and  _254
REMARK  110  A    between atoms: _254  and  _255
REMARK  111  A    between atoms: _254  and  _257
REMARK  112  A    between atoms: _257  and  _258
REMARK  113  A    between atoms: _264  and  _266
REMARK  114  A    between atoms: _266  and  _267
REMARK  115  A    between atoms: _266  and  _269
REMARK  116  A    between atoms: _271  and  _273
REMARK  117  A    between atoms: _273  and  _274
REMARK  118  A    between atoms: _277  and  _279
REMARK  119  A    between atoms: _279  and  _280
REMARK  120  A    between atoms: _282  and  _284
REMARK  121  A    between atoms: _284  and  _285
REMARK  122  A    between atoms: _284  and  _287
REMARK  123  A    between atoms: _287  and  _288
REMARK  124  A    between atoms: _288  and  _289
REMARK  125  A    between atoms: _292  and  _294
REMARK  126  A    between atoms: _294  and  _295
REMARK  127  A    between atoms: _294  and  _297
REMARK  128  A    between atoms: _297  and  _298
REMARK  129  A    between atoms: _301  and  _303
REMARK  130  A    between atoms: _303  and  _304
REMARK  131  A    between atoms: _307  and  _309
REMARK  132  A    between atoms: _309  and  _310
REMARK  133  A    between atoms: _309  and  _312
REMARK  134  A    between atoms: _312  and  _313
REMARK  135  A    between atoms: _313  and  _436
REMARK  136  A    between atoms: _314  and  _316
REMARK  137  A    between atoms: _316  and  _317
REMARK  138  A    between atoms: _316  and  _319
REMARK  139  A    between atoms: _319  and  _320
REMARK  140  A    between atoms: _320  and  _321
REMARK  141  A    between atoms: _326  and  _328
REMARK  142  A    between atoms: _328  and  _329
REMARK  143  A    between atoms: _331  and  _333
REMARK  144  A    between atoms: _333  and  _334
REMARK  145  A    between atoms: _333  and  _336
REMARK  146  A    between atoms: _336  and  _337
REMARK  147  A    between atoms: _340  and  _342
REMARK  148  A    between atoms: _342  and  _343
REMARK  149  A    between atoms: _342  and  _345
REMARK  150  A    between atoms: _345  and  _346
REMARK  151  A    between atoms: _348  and  _350
REMARK  152  A    between atoms: _350  and  _351
REMARK  153  A    between atoms: _353  and  _355
REMARK  154  A    between atoms: _355  and  _356
REMARK  155  A    between atoms: _358  and  _360
REMARK  156  A    between atoms: _360  and  _361
REMARK  157  A    between atoms: _360  and  _363
REMARK  158  A    between atoms: _363  and  _364
REMARK  159  A    between atoms: _369  and  _371
REMARK  160  A    between atoms: _371  and  _372
REMARK  161  A    between atoms: _371  and  _374
REMARK  162  A    between atoms: _374  and  _375
REMARK  163  A    between atoms: _378  and  _380
REMARK  164  A    between atoms: _380  and  _381
REMARK  165  A    between atoms: _380  and  _383
REMARK  166  A    between atoms: _386  and  _388
REMARK  167  A    between atoms: _388  and  _389
REMARK  168  A    between atoms: _388  and  _391
REMARK  169  A    between atoms: _391  and  _392
REMARK  170  A    between atoms: _394  and  _396
REMARK  171  A    between atoms: _396  and  _397
REMARK  172  A    between atoms: _396  and  _399
REMARK  173  A    between atoms: _399  and  _400
REMARK  174  A    between atoms: _410  and  _412
REMARK  175  A    between atoms: _412  and  _413
REMARK  176  A    between atoms: _415  and  _417
REMARK  177  A    between atoms: _417  and  _418
REMARK  178  A    between atoms: _417  and  _420
REMARK  179  A    between atoms: _420  and  _421
REMARK  180  A    between atoms: _421  and  _422
REMARK  181  A    between atoms: _425  and  _427
REMARK  182  A    between atoms: _427  and  _428
REMARK  183  A    between atoms: _430  and  _432
REMARK  184  A    between atoms: _432  and  _433
REMARK  185  A    between atoms: _432  and  _435
REMARK  186  A    between atoms: _435  and  _436
REMARK  187  A    between atoms: _437  and  _439
REMARK  188  A    between atoms: _439  and  _440
REMARK  189  A    between atoms: _443  and  _445
REMARK  190  A    between atoms: _445  and  _446
REMARK  191  A    between atoms: _445  and  _448
REMARK  192  A    between atoms: _448  and  _449
REMARK  193  A    between atoms: _449  and  _450
REMARK  194  A    between atoms: _450  and  _451
REMARK  195  A    between atoms: _460  and  _462
REMARK  196  A    between atoms: _462  and  _463
REMARK  197  A    between atoms: _462  and  _465
REMARK  198  A    between atoms: _465  and  _466
REMARK  199  A    between atoms: _466  and  _467
REMARK  200  A    between atoms: _467  and  _468
REMARK  201  A    between atoms: _468  and  _469
REMARK  202  A    between atoms: _473  and  _475
REMARK  203  A    between atoms: _475  and  _476
REMARK  204  A    between atoms: _475  and  _478
REMARK  205  A    between atoms: _478  and  _479
REMARK  206  A    between atoms: _484  and  _485
REMARK  207  A    between atoms: _487  and  _489
REMARK  208  A    between atoms: _489  and  _490
REMARK  209  A    between atoms: _492  and  _494
REMARK  210  A    between atoms: _494  and  _495
REMARK  211  A    between atoms: _494  and  _497
REMARK  212  A    between atoms: _497  and  _498
REMARK  213  A    between atoms: _501  and  _503
REMARK  214  A    between atoms: _503  and  _504
REMARK  215  A    between atoms: _503  and  _506
REMARK  216  A    between atoms: _506  and  _507
REMARK  217  A    between atoms: _512  and  _513
REMARK  218  A    between atoms: _515  and  _517
REMARK  219  A    between atoms: _517  and  _518
REMARK  220  A    between atoms: _517  and  _520
REMARK  221  A    between atoms: _520  and  _521
REMARK                            x       y       z     vdW  Elec       q    Type
REMARK                         _______ _______ _______ _____ _____    ______ ____
ROOT
ATOM      1  O   HOH     1       3.722  12.815  23.500  0.00  0.00    +0.000 OA
ENDROOT
TORSDOF 0
REMARK  Name = ../refined-set-2016/2xc4/2xc4_pocket.pdb
REMARK  221 active torsions:
REMARK  status: ('A' for Active; 'I' for Inactive)
REMARK    1  A    between atoms: _1  and  _5
REMARK    2  A    between atoms: _5  and  _6
REMARK    3  A    between atoms: _5  and  _8
REMARK    4  A    between atoms: _8  and  _9
REMARK    5  A    between atoms: _12  and  _14
REMARK    6  A    between atoms: _14  and  _15
REMARK    7  A    between atoms: _14  and  _17
REMARK    8  A    between atoms: _20  and  _22
REMARK    9  A    between atoms: _22  and  _23
REMARK   10  A    between atoms: _22  and  _25
REMARK   11  A    between atoms: _25  and  _26
REMARK   12  A    between atoms: _31  and  _33
REMARK   13  A    between atoms: _33  and  _34
REMARK   14  A    between atoms: _33  and  _36
REMARK   15  A    between atoms: _36  and  _37
REMARK   16  A    between atoms: _37  and  _38
REMARK   17  A    between atoms: _43  and  _45
REMARK   18  A    between atoms: _45  and  _46
REMARK   19  A    between atoms: _45  and  _48
REMARK   20  A    between atoms: _48  and  _49
REMARK   21  A    between atoms: _52  and  _54
REMARK   22  A    between atoms: _54  and  _55
REMARK   23  A    between atoms: _54  and  _57
REMARK   24  A    between atoms: _57  and  _58
REMARK   25  A    between atoms: _58  and  _59
REMARK   26  A    between atoms: _59  and  _60
REMARK   27  A    between atoms: _60  and  _61
REMARK   28  A    between atoms: _65  and  _67
REMARK   29  A    between atoms: _67  and  _68
REMARK   30  A    between atoms: _67  and  _70
REMARK   31  A    between atoms: _70  and  _71
REMARK   32  A    between atoms: _71  and  _72
REMARK   33  A    between atoms: _75  and  _77
REMARK   34  A    between atoms: _77  and  _78
REMARK   35  A    between atoms: _77  and  _80
REMARK   36  A    between atoms: _80  and  _81
REMARK   37  A    between atoms: _84  and  _86
REMARK   38  A    between atoms: _86  and  _87
REMARK   39  A    between atoms: _86  and  _89
REMARK   40  A    between atoms: _89  and  _90
REMARK   41  A    between atoms: _95  and  _96
REMARK   42  A    between atoms: _98  and  _100
REMARK   43  A    between atoms: _100  and  _101
REMARK   44  A    between atoms: _100  and  _103
REMARK   45  A    between atoms: _103  and  _104
REMARK   46  A    between atoms: _107  and  _109
REMARK   47  A    between atoms: _109  and  _110
REMARK   48  A    between atoms: _109  and  _112
REMARK   49  A    between atoms: _112  and  _113
REMARK   50  A    between atoms: _116  and  _118
REMARK   51  A    between atoms: _118  and  _119
REMARK   52  A    between atoms: _118  and  _121
REMARK   53  A    between atoms: _124  and  _126
REMARK   54  A    between atoms: _126  and  _127
REMARK   55  A    between atoms: _126  and  _129
REMARK   56  A    between atoms: _129  and  _130
REMARK   57  A    between atoms: _130  and  _131
REMARK   58  A    between atoms: _131  and  _132
REMARK   59  A    between atoms: _141  and  _143
REMARK   60  A    between atoms: _143  and  _144
REMARK   61  A    between atoms: _143  and  _146
REMARK   62  A    between atoms: _146  and  _147
REMARK   63  A    between atoms: _152  and  _154
REMARK   64  A    between atoms: _154  and  _155
REMARK   65  A    between atoms: _154  and  _157
REMARK   66  A    between atoms: _157  and  _158
REMARK   67  A    between atoms: _158  and  _159
REMARK   68  A    between atoms: _162  and  _164
REMARK   69  A    between atoms: _164  and  _165
REMARK   70  A    between atoms: _164  and  _167
REMARK   71  A    between atoms: _167  and  _168
REMARK   72  A    between atoms: _168  and  _169
REMARK   73  A    between atoms: _169  and  _170
REMARK   74  A    between atoms: _170  and  _171
REMARK   75  A    between atoms: _175  and  _177
REMARK   76  A    between atoms: _177  and  _178
REMARK   77  A    between atoms: _180  and  _182
REMARK   78  A    between atoms: _182  and  _183
REMARK   79  A    between atoms: _182  and  _185
REMARK   80  A    between atoms: _188  and  _190
REMARK   81  A    between atoms: _190  and  _191
REMARK   82  A    between atoms: _190  and  _193
REMARK   83  A    between atoms: _193  and  _194
REMARK   84  A    between atoms: _196  and  _198
REMARK   85  A    between atoms: _198  and  _199
REMARK   86  A    between atoms: _198  and  _201
REMARK   87  A    between atoms: _201  and  _202
REMARK   88  A    between atoms: _204  and  _206
REMARK   89  A    between atoms: _206  and  _207
REMARK   90  A    between atoms: _206  and  _209
REMARK   91  A    between atoms: _209  and  _210
REMARK   92  A    between atoms: _216  and  _218
REMARK   93  A    between atoms: _218  and  _219
REMARK   94  A    between atoms: _218  and  _221
REMARK   95  A    between atoms: _221  and  _222
REMARK   96  A    between atoms: _225  and  _227
REMARK   97  A    between atoms: _227  and  _228
REMARK   98  A    between atoms: _227  and  _230
REMARK   99  A    between atoms: _230  and  _231
REMARK  100  A    between atoms: _234  and  _236
REMARK  101  A    between atoms: _236  and  _237
REMARK  102  A    between atoms: _236  and  _239
REMARK  103  A    between atoms: _239  and  _240
REMARK  104  A    between atoms: _243  and  _245
REMARK  105  A    between atoms: _245  and  _246
REMARK  106  A    between atoms: _245  and  _248
REMARK  107  A    between atoms: _248  and  _249
REMARK  108  A    between atoms: _249  and  _250
REMARK  109  A    between atoms: _252  and  _254
REMARK  110  A    between atoms: _254  and  _255
REMARK  111  A    between atoms: _254  and  _257
REMARK  112  A    between atoms: _257  and  _258
REMARK  113  A    between atoms: _264  and  _266
REMARK  114  A    between atoms: _266  and  _267
REMARK  115  A    between atoms: _266  and  _269
REMARK  116  A    between atoms: _271  and  _273
REMARK  117  A    between atoms: _273  and  _274
REMARK  118  A    between atoms: _277  and  _279
REMARK  119  A    between atoms: _279  and  _280
REMARK  120  A    between atoms: _282  and  _284
REMARK  121  A    between atoms: _284  and  _285
REMARK  122  A    between atoms: _284  and  _287
REMARK  123  A    between atoms: _287  and  _288
REMARK  124  A    between atoms: _288  and  _289
REMARK  125  A    between atoms: _292  and  _294
REMARK  126  A    between atoms: _294  and  _295
REMARK  127  A    between atoms: _294  and  _297
REMARK  128  A    between atoms: _297  and  _298
REMARK  129  A    between atoms: _301  and  _303
REMARK  130  A    between atoms: _303  and  _304
REMARK  131  A    between atoms: _307  and  _309
REMARK  132  A    between atoms: _309  and  _310
REMARK  133  A    between atoms: _309  and  _312
REMARK  134  A    between atoms: _312  and  _313
REMARK  135  A    between atoms: _313  and  _436
REMARK  136  A    between atoms: _314  and  _316
REMARK  137  A    between atoms: _316  and  _317
REMARK  138  A    between atoms: _316  and  _319
REMARK  139  A    between atoms: _319  and  _320
REMARK  140  A    between atoms: _320  and  _321
REMARK  141  A    between atoms: _326  and  _328
REMARK  142  A    between atoms: _328  and  _329
REMARK  143  A    between atoms: _331  and  _333
REMARK  144  A    between atoms: _333  and  _334
REMARK  145  A    between atoms: _333  and  _336
REMARK  146  A    between atoms: _336  and  _337
REMARK  147  A    between atoms: _340  and  _342
REMARK  148  A    between atoms: _342  and  _343
REMARK  149  A    between atoms: _342  and  _345
REMARK  150  A    between atoms: _345  and  _346
REMARK  151  A    between atoms: _348  and  _350
REMARK  152  A    between atoms: _350  and  _351
REMARK  153  A    between atoms: _353  and  _355
REMARK  154  A    between atoms: _355  and  _356
REMARK  155  A    between atoms: _358  and  _360
REMARK  156  A    between atoms: _360  and  _361
REMARK  157  A    between atoms: _360  and  _363
REMARK  158  A    between atoms: _363  and  _364
REMARK  159  A    between atoms: _369  and  _371
REMARK  160  A    between atoms: _371  and  _372
REMARK  161  A    between atoms: _371  and  _374
REMARK  162  A    between atoms: _374  and  _375
REMARK  163  A    between atoms: _378  and  _380
REMARK  164  A    between atoms: _380  and  _381
REMARK  165  A    between atoms: _380  and  _383
REMARK  166  A    between atoms: _386  and  _388
REMARK  167  A    between atoms: _388  and  _389
REMARK  168  A    between atoms: _388  and  _391
REMARK  169  A    between atoms: _391  and  _392
REMARK  170  A    between atoms: _394  and  _396
REMARK  171  A    between atoms: _396  and  _397
REMARK  172  A    between atoms: _396  and  _399
REMARK  173  A    between atoms: _399  and  _400
REMARK  174  A    between atoms: _410  and  _412
REMARK  175  A    between atoms: _412  and  _413
REMARK  176  A    between atoms: _415  and  _417
REMARK  177  A    between atoms: _417  and  _418
REMARK  178  A    between atoms: _417  and  _420
REMARK  179  A    between atoms: _420  and  _421
REMARK  180  A    between atoms: _421  and  _422
REMARK  181  A    between atoms: _425  and  _427
REMARK  182  A    between atoms: _427  and  _428
REMARK  183  A    between atoms: _430  and  _432
REMARK  184  A    between atoms: _432  and  _433
REMARK  185  A    between atoms: _432  and  _435
REMARK  186  A    between atoms: _435  and  _436
REMARK  187  A    between atoms: _437  and  _439
REMARK  188  A    between atoms: _439  and  _440
REMARK  189  A    between atoms: _443  and  _445
REMARK  190  A    between atoms: _445  and  _446
REMARK  191  A    between atoms: _445  and  _448
REMARK  192  A    between atoms: _448  and  _449
REMARK  193  A    between atoms: _449  and  _450
REMARK  194  A    between atoms: _450  and  _451
REMARK  195  A    between atoms: _460  and  _462
REMARK  196  A    between atoms: _462  and  _463
REMARK  197  A    between atoms: _462  and  _465
REMARK  198  A    between atoms: _465  and  _466
REMARK  199  A    between atoms: _466  and  _467
REMARK  200  A    between atoms: _467  and  _468
REMARK  201  A    between atoms: _468  and  _469
REMARK  202  A    between atoms: _473  and  _475
REMARK  203  A    between atoms: _475  and  _476
REMARK  204  A    between atoms: _475  and  _478
REMARK  205  A    between atoms: _478  and  _479
REMARK  206  A    between atoms: _484  and  _485
REMARK  207  A    between atoms: _487  and  _489
REMARK  208  A    between atoms: _489  and  _490
REMARK  209  A    between atoms: _492  and  _494
REMARK  210  A    between atoms: _494  and  _495
REMARK  211  A    between atoms: _494  and  _497
REMARK  212  A    between atoms: _497  and  _498
REMARK  213  A    between atoms: _501  and  _503
REMARK  214  A    between atoms: _503  and  _504
REMARK  215  A    between atoms: _503  and  _506
REMARK  216  A    between atoms: _506  and  _507
REMARK  217  A    between atoms: _512  and  _513
REMARK  218  A    between atoms: _515  and  _517
REMARK  219  A    between atoms: _517  and  _518
REMARK  220  A    between atoms: _517  and  _520
REMARK  221  A    between atoms: _520  and  _521
REMARK                            x       y       z     vdW  Elec       q    Type
REMARK                         _______ _______ _______ _____ _____    ______ ____
ROOT
ATOM      1  O   HOH     1       2.071  12.115  21.250  0.00  0.00    +0.000 OA
ENDROOT
TORSDOF 0
REMARK  Name = ../refined-set-2016/2xc4/2xc4_pocket.pdb
REMARK  221 active torsions:
REMARK  status: ('A' for Active; 'I' for Inactive)
REMARK    1  A    between atoms: _1  and  _5
REMARK    2  A    between atoms: _5  and  _6
REMARK    3  A    between atoms: _5  and  _8
REMARK    4  A    between atoms: _8  and  _9
REMARK    5  A    between atoms: _12  and  _14
REMARK    6  A    between atoms: _14  and  _15
REMARK    7  A    between atoms: _14  and  _17
REMARK    8  A    between atoms: _20  and  _22
REMARK    9  A    between atoms: _22  and  _23
REMARK   10  A    between atoms: _22  and  _25
REMARK   11  A    between atoms: _25  and  _26
REMARK   12  A    between atoms: _31  and  _33
REMARK   13  A    between atoms: _33  and  _34
REMARK   14  A    between atoms: _33  and  _36
REMARK   15  A    between atoms: _36  and  _37
REMARK   16  A    between atoms: _37  and  _38
REMARK   17  A    between atoms: _43  and  _45
REMARK   18  A    between atoms: _45  and  _46
REMARK   19  A    between atoms: _45  and  _48
REMARK   20  A    between atoms: _48  and  _49
REMARK   21  A    between atoms: _52  and  _54
REMARK   22  A    between atoms: _54  and  _55
REMARK   23  A    between atoms: _54  and  _57
REMARK   24  A    between atoms: _57  and  _58
REMARK   25  A    between atoms: _58  and  _59
REMARK   26  A    between atoms: _59  and  _60
REMARK   27  A    between atoms: _60  and  _61
REMARK   28  A    between atoms: _65  and  _67
REMARK   29  A    between atoms: _67  and  _68
REMARK   30  A    between atoms: _67  and  _70
REMARK   31  A    between atoms: _70  and  _71
REMARK   32  A    between atoms: _71  and  _72
REMARK   33  A    between atoms: _75  and  _77
REMARK   34  A    between atoms: _77  and  _78
REMARK   35  A    between atoms: _77  and  _80
REMARK   36  A    between atoms: _80  and  _81
REMARK   37  A    between atoms: _84  and  _86
REMARK   38  A    between atoms: _86  and  _87
REMARK   39  A    between atoms: _86  and  _89
REMARK   40  A    between atoms: _89  and  _90
REMARK   41  A    between atoms: _95  and  _96
REMARK   42  A    between atoms: _98  and  _100
REMARK   43  A    between atoms: _100  and  _101
REMARK   44  A    between atoms: _100  and  _103
REMARK   45  A    between atoms: _103  and  _104
REMARK   46  A    between atoms: _107  and  _109
REMARK   47  A    between atoms: _109  and  _110
REMARK   48  A    between atoms: _109  and  _112
REMARK   49  A    between atoms: _112  and  _113
REMARK   50  A    between atoms: _116  and  _118
REMARK   51  A    between atoms: _118  and  _119
REMARK   52  A    between atoms: _118  and  _121
REMARK   53  A    between atoms: _124  and  _126
REMARK   54  A    between atoms: _126  and  _127
REMARK   55  A    between atoms: _126  and  _129
REMARK   56  A    between atoms: _129  and  _130
REMARK   57  A    between atoms: _130  and  _131
REMARK   58  A    between atoms: _131  and  _132
REMARK   59  A    between atoms: _141  and  _143
REMARK   60  A    between atoms: _143  and  _144
REMARK   61  A    between atoms: _143  and  _146
REMARK   62  A    between atoms: _146  and  _147
REMARK   63  A    between atoms: _152  and  _154
REMARK   64  A    between atoms: _154  and  _155
REMARK   65  A    between atoms: _154  and  _157
REMARK   66  A    between atoms: _157  and  _158
REMARK   67  A    between atoms: _158  and  _159
REMARK   68  A    between atoms: _162  and  _164
REMARK   69  A    between atoms: _164  and  _165
REMARK   70  A    between atoms: _164  and  _167
REMARK   71  A    between atoms: _167  and  _168
REMARK   72  A    between atoms: _168  and  _169
REMARK   73  A    between atoms: _169  and  _170
REMARK   74  A    between atoms: _170  and  _171
REMARK   75  A    between atoms: _175  and  _177
REMARK   76  A    between atoms: _177  and  _178
REMARK   77  A    between atoms: _180  and  _182
REMARK   78  A    between atoms: _182  and  _183
REMARK   79  A    between atoms: _182  and  _185
REMARK   80  A    between atoms: _188  and  _190
REMARK   81  A    between atoms: _190  and  _191
REMARK   82  A    between atoms: _190  and  _193
REMARK   83  A    between atoms: _193  and  _194
REMARK   84  A    between atoms: _196  and  _198
REMARK   85  A    between atoms: _198  and  _199
REMARK   86  A    between atoms: _198  and  _201
REMARK   87  A    between atoms: _201  and  _202
REMARK   88  A    between atoms: _204  and  _206
REMARK   89  A    between atoms: _206  and  _207
REMARK   90  A    between atoms: _206  and  _209
REMARK   91  A    between atoms: _209  and  _210
REMARK   92  A    between atoms: _216  and  _218
REMARK   93  A    between atoms: _218  and  _219
REMARK   94  A    between atoms: _218  and  _221
REMARK   95  A    between atoms: _221  and  _222
REMARK   96  A    between atoms: _225  and  _227
REMARK   97  A    between atoms: _227  and  _228
REMARK   98  A    between atoms: _227  and  _230
REMARK   99  A    between atoms: _230  and  _231
REMARK  100  A    between atoms: _234  and  _236
REMARK  101  A    between atoms: _236  and  _237
REMARK  102  A    between atoms: _236  and  _239
REMARK  103  A    between atoms: _239  and  _240
REMARK  104  A    between atoms: _243  and  _245
REMARK  105  A    between atoms: _245  and  _246
REMARK  106  A    between atoms: _245  and  _248
REMARK  107  A    between atoms: _248  and  _249
REMARK  108  A    between atoms: _249  and  _250
REMARK  109  A    between atoms: _252  and  _254
REMARK  110  A    between atoms: _254  and  _255
REMARK  111  A    between atoms: _254  and  _257
REMARK  112  A    between atoms: _257  and  _258
REMARK  113  A    between atoms: _264  and  _266
REMARK  114  A    between atoms: _266  and  _267
REMARK  115  A    between atoms: _266  and  _269
REMARK  116  A    between atoms: _271  and  _273
REMARK  117  A    between atoms: _273  and  _274
REMARK  118  A    between atoms: _277  and  _279
REMARK  119  A    between atoms: _279  and  _280
REMARK  120  A    between atoms: _282  and  _284
REMARK  121  A    between atoms: _284  and  _285
REMARK  122  A    between atoms: _284  and  _287
REMARK  123  A    between atoms: _287  and  _288
REMARK  124  A    between atoms: _288  and  _289
REMARK  125  A    between atoms: _292  and  _294
REMARK  126  A    between atoms: _294  and  _295
REMARK  127  A    between atoms: _294  and  _297
REMARK  128  A    between atoms: _297  and  _298
REMARK  129  A    between atoms: _301  and  _303
REMARK  130  A    between atoms: _303  and  _304
REMARK  131  A    between atoms: _307  and  _309
REMARK  132  A    between atoms: _309  and  _310
REMARK  133  A    between atoms: _309  and  _312
REMARK  134  A    between atoms: _312  and  _313
REMARK  135  A    between atoms: _313  and  _436
REMARK  136  A    between atoms: _314  and  _316
REMARK  137  A    between atoms: _316  and  _317
REMARK  138  A    between atoms: _316  and  _319
REMARK  139  A    between atoms: _319  and  _320
REMARK  140  A    between atoms: _320  and  _321
REMARK  141  A    between atoms: _326  and  _328
REMARK  142  A    between atoms: _328  and  _329
REMARK  143  A    between atoms: _331  and  _333
REMARK  144  A    between atoms: _333  and  _334
REMARK  145  A    between atoms: _333  and  _336
REMARK  146  A    between atoms: _336  and  _337
REMARK  147  A    between atoms: _340  and  _342
REMARK  148  A    between atoms: _342  and  _343
REMARK  149  A    between atoms: _342  and  _345
REMARK  150  A    between atoms: _345  and  _346
REMARK  151  A    between atoms: _348  and  _350
REMARK  152  A    between atoms: _350  and  _351
REMARK  153  A    between atoms: _353  and  _355
REMARK  154  A    between atoms: _355  and  _356
REMARK  155  A    between atoms: _358  and  _360
REMARK  156  A    between atoms: _360  and  _361
REMARK  157  A    between atoms: _360  and  _363
REMARK  158  A    between atoms: _363  and  _364
REMARK  159  A    between atoms: _369  and  _371
REMARK  160  A    between atoms: _371  and  _372
REMARK  161  A    between atoms: _371  and  _374
REMARK  162  A    between atoms: _374  and  _375
REMARK  163  A    between atoms: _378  and  _380
REMARK  164  A    between atoms: _380  and  _381
REMARK  165  A    between atoms: _380  and  _383
REMARK  166  A    between atoms: _386  and  _388
REMARK  167  A    between atoms: _388  and  _389
REMARK  168  A    between atoms: _388  and  _391
REMARK  169  A    between atoms: _391  and  _392
REMARK  170  A    between atoms: _394  and  _396
REMARK  171  A    between atoms: _396  and  _397
REMARK  172  A    between atoms: _396  and  _399
REMARK  173  A    between atoms: _399  and  _400
REMARK  174  A    between atoms: _410  and  _412
REMARK  175  A    between atoms: _412  and  _413
REMARK  176  A    between atoms: _415  and  _417
REMARK  177  A    between atoms: _417  and  _418
REMARK  178  A    between atoms: _417  and  _420
REMARK  179  A    between atoms: _420  and  _421
REMARK  180  A    between atoms: _421  and  _422
REMARK  181  A    between atoms: _425  and  _427
REMARK  182  A    between atoms: _427  and  _428
REMARK  183  A    between atoms: _430  and  _432
REMARK  184  A    between atoms: _432  and  _433
REMARK  185  A    between atoms: _432  and  _435
REMARK  186  A    between atoms: _435  and  _436
REMARK  187  A    between atoms: _437  and  _439
REMARK  188  A    between atoms: _439  and  _440
REMARK  189  A    between atoms: _443  and  _445
REMARK  190  A    between atoms: _445  and  _446
REMARK  191  A    between atoms: _445  and  _448
REMARK  192  A    between atoms: _448  and  _449
REMARK  193  A    between atoms: _449  and  _450
REMARK  194  A    between atoms: _450  and  _451
REMARK  195  A    between atoms: _460  and  _462
REMARK  196  A    between atoms: _462  and  _463
REMARK  197  A    between atoms: _462  and  _465
REMARK  198  A    between atoms: _465  and  _466
REMARK  199  A    between atoms: _466  and  _467
REMARK  200  A    between atoms: _467  and  _468
REMARK  201  A    between atoms: _468  and  _469
REMARK  202  A    between atoms: _473  and  _475
REMARK  203  A    between atoms: _475  and  _476
REMARK  204  A    between atoms: _475  and  _478
REMARK  205  A    between atoms: _478  and  _479
REMARK  206  A    between atoms: _484  and  _485
REMARK  207  A    between atoms: _487  and  _489
REMARK  208  A    between atoms: _489  and  _490
REMARK  209  A    between atoms: _492  and  _494
REMARK  210  A    between atoms: _494  and  _495
REMARK  211  A    between atoms: _494  and  _497
REMARK  212  A    between atoms: _497  and  _498
REMARK  213  A    between atoms: _501  and  _503
REMARK  214  A    between atoms: _503  and  _504
REMARK  215  A    between atoms: _503  and  _506
REMARK  216  A    between atoms: _506  and  _507
REMARK  217  A    between atoms: _512  and  _513
REMARK  218  A    between atoms: _515  and  _517
REMARK  219  A    between atoms: _517  and  _518
REMARK  220  A    between atoms: _517  and  _520
REMARK  221  A    between atoms: _520  and  _521
REMARK                            x       y       z     vdW  Elec       q    Type
REMARK                         _______ _______ _______ _____ _____    ______ ____
ROOT
ATOM      1  O   HOH     1      -9.868  10.100  22.232  0.00  0.00    +0.000 OA
ENDROOT
TORSDOF 0
REMARK  Name = ../refined-set-2016/2xc4/2xc4_pocket.pdb
REMARK  221 active torsions:
REMARK  status: ('A' for Active; 'I' for Inactive)
REMARK    1  A    between atoms: _1  and  _5
REMARK    2  A    between atoms: _5  and  _6
REMARK    3  A    between atoms: _5  and  _8
REMARK    4  A    between atoms: _8  and  _9
REMARK    5  A    between atoms: _12  and  _14
REMARK    6  A    between atoms: _14  and  _15
REMARK    7  A    between atoms: _14  and  _17
REMARK    8  A    between atoms: _20  and  _22
REMARK    9  A    between atoms: _22  and  _23
REMARK   10  A    between atoms: _22  and  _25
REMARK   11  A    between atoms: _25  and  _26
REMARK   12  A    between atoms: _31  and  _33
REMARK   13  A    between atoms: _33  and  _34
REMARK   14  A    between atoms: _33  and  _36
REMARK   15  A    between atoms: _36  and  _37
REMARK   16  A    between atoms: _37  and  _38
REMARK   17  A    between atoms: _43  and  _45
REMARK   18  A    between atoms: _45  and  _46
REMARK   19  A    between atoms: _45  and  _48
REMARK   20  A    between atoms: _48  and  _49
REMARK   21  A    between atoms: _52  and  _54
REMARK   22  A    between atoms: _54  and  _55
REMARK   23  A    between atoms: _54  and  _57
REMARK   24  A    between atoms: _57  and  _58
REMARK   25  A    between atoms: _58  and  _59
REMARK   26  A    between atoms: _59  and  _60
REMARK   27  A    between atoms: _60  and  _61
REMARK   28  A    between atoms: _65  and  _67
REMARK   29  A    between atoms: _67  and  _68
REMARK   30  A    between atoms: _67  and  _70
REMARK   31  A    between atoms: _70  and  _71
REMARK   32  A    between atoms: _71  and  _72
REMARK   33  A    between atoms: _75  and  _77
REMARK   34  A    between atoms: _77  and  _78
REMARK   35  A    between atoms: _77  and  _80
REMARK   36  A    between atoms: _80  and  _81
REMARK   37  A    between atoms: _84  and  _86
REMARK   38  A    between atoms: _86  and  _87
REMARK   39  A    between atoms: _86  and  _89
REMARK   40  A    between atoms: _89  and  _90
REMARK   41  A    between atoms: _95  and  _96
REMARK   42  A    between atoms: _98  and  _100
REMARK   43  A    between atoms: _100  and  _101
REMARK   44  A    between atoms: _100  and  _103
REMARK   45  A    between atoms: _103  and  _104
REMARK   46  A    between atoms: _107  and  _109
REMARK   47  A    between atoms: _109  and  _110
REMARK   48  A    between atoms: _109  and  _112
REMARK   49  A    between atoms: _112  and  _113
REMARK   50  A    between atoms: _116  and  _118
REMARK   51  A    between atoms: _118  and  _119
REMARK   52  A    between atoms: _118  and  _121
REMARK   53  A    between atoms: _124  and  _126
REMARK   54  A    between atoms: _126  and  _127
REMARK   55  A    between atoms: _126  and  _129
REMARK   56  A    between atoms: _129  and  _130
REMARK   57  A    between atoms: _130  and  _131
REMARK   58  A    between atoms: _131  and  _132
REMARK   59  A    between atoms: _141  and  _143
REMARK   60  A    between atoms: _143  and  _144
REMARK   61  A    between atoms: _143  and  _146
REMARK   62  A    between atoms: _146  and  _147
REMARK   63  A    between atoms: _152  and  _154
REMARK   64  A    between atoms: _154  and  _155
REMARK   65  A    between atoms: _154  and  _157
REMARK   66  A    between atoms: _157  and  _158
REMARK   67  A    between atoms: _158  and  _159
REMARK   68  A    between atoms: _162  and  _164
REMARK   69  A    between atoms: _164  and  _165
REMARK   70  A    between atoms: _164  and  _167
REMARK   71  A    between atoms: _167  and  _168
REMARK   72  A    between atoms: _168  and  _169
REMARK   73  A    between atoms: _169  and  _170
REMARK   74  A    between atoms: _170  and  _171
REMARK   75  A    between atoms: _175  and  _177
REMARK   76  A    between atoms: _177  and  _178
REMARK   77  A    between atoms: _180  and  _182
REMARK   78  A    between atoms: _182  and  _183
REMARK   79  A    between atoms: _182  and  _185
REMARK   80  A    between atoms: _188  and  _190
REMARK   81  A    between atoms: _190  and  _191
REMARK   82  A    between atoms: _190  and  _193
REMARK   83  A    between atoms: _193  and  _194
REMARK   84  A    between atoms: _196  and  _198
REMARK   85  A    between atoms: _198  and  _199
REMARK   86  A    between atoms: _198  and  _201
REMARK   87  A    between atoms: _201  and  _202
REMARK   88  A    between atoms: _204  and  _206
REMARK   89  A    between atoms: _206  and  _207
REMARK   90  A    between atoms: _206  and  _209
REMARK   91  A    between atoms: _209  and  _210
REMARK   92  A    between atoms: _216  and  _218
REMARK   93  A    between atoms: _218  and  _219
REMARK   94  A    between atoms: _218  and  _221
REMARK   95  A    between atoms: _221  and  _222
REMARK   96  A    between atoms: _225  and  _227
REMARK   97  A    between atoms: _227  and  _228
REMARK   98  A    between atoms: _227  and  _230
REMARK   99  A    between atoms: _230  and  _231
REMARK  100  A    between atoms: _234  and  _236
REMARK  101  A    between atoms: _236  and  _237
REMARK  102  A    between atoms: _236  and  _239
REMARK  103  A    between atoms: _239  and  _240
REMARK  104  A    between atoms: _243  and  _245
REMARK  105  A    between atoms: _245  and  _246
REMARK  106  A    between atoms: _245  and  _248
REMARK  107  A    between atoms: _248  and  _249
REMARK  108  A    between atoms: _249  and  _250
REMARK  109  A    between atoms: _252  and  _254
REMARK  110  A    between atoms: _254  and  _255
REMARK  111  A    between atoms: _254  and  _257
REMARK  112  A    between atoms: _257  and  _258
REMARK  113  A    between atoms: _264  and  _266
REMARK  114  A    between atoms: _266  and  _267
REMARK  115  A    between atoms: _266  and  _269
REMARK  116  A    between atoms: _271  and  _273
REMARK  117  A    between atoms: _273  and  _274
REMARK  118  A    between atoms: _277  and  _279
REMARK  119  A    between atoms: _279  and  _280
REMARK  120  A    between atoms: _282  and  _284
REMARK  121  A    between atoms: _284  and  _285
REMARK  122  A    between atoms: _284  and  _287
REMARK  123  A    between atoms: _287  and  _288
REMARK  124  A    between atoms: _288  and  _289
REMARK  125  A    between atoms: _292  and  _294
REMARK  126  A    between atoms: _294  and  _295
REMARK  127  A    between atoms: _294  and  _297
REMARK  128  A    between atoms: _297  and  _298
REMARK  129  A    between atoms: _301  and  _303
REMARK  130  A    between atoms: _303  and  _304
REMARK  131  A    between atoms: _307  and  _309
REMARK  132  A    between atoms: _309  and  _310
REMARK  133  A    between atoms: _309  and  _312
REMARK  134  A    between atoms: _312  and  _313
REMARK  135  A    between atoms: _313  and  _436
REMARK  136  A    between atoms: _314  and  _316
REMARK  137  A    between atoms: _316  and  _317
REMARK  138  A    between atoms: _316  and  _319
REMARK  139  A    between atoms: _319  and  _320
REMARK  140  A    between atoms: _320  and  _321
REMARK  141  A    between atoms: _326  and  _328
REMARK  142  A    between atoms: _328  and  _329
REMARK  143  A    between atoms: _331  and  _333
REMARK  144  A    between atoms: _333  and  _334
REMARK  145  A    between atoms: _333  and  _336
REMARK  146  A    between atoms: _336  and  _337
REMARK  147  A    between atoms: _340  and  _342
REMARK  148  A    between atoms: _342  and  _343
REMARK  149  A    between atoms: _342  and  _345
REMARK  150  A    between atoms: _345  and  _346
REMARK  151  A    between atoms: _348  and  _350
REMARK  152  A    between atoms: _350  and  _351
REMARK  153  A    between atoms: _353  and  _355
REMARK  154  A    between atoms: _355  and  _356
REMARK  155  A    between atoms: _358  and  _360
REMARK  156  A    between atoms: _360  and  _361
REMARK  157  A    between atoms: _360  and  _363
REMARK  158  A    between atoms: _363  and  _364
REMARK  159  A    between atoms: _369  and  _371
REMARK  160  A    between atoms: _371  and  _372
REMARK  161  A    between atoms: _371  and  _374
REMARK  162  A    between atoms: _374  and  _375
REMARK  163  A    between atoms: _378  and  _380
REMARK  164  A    between atoms: _380  and  _381
REMARK  165  A    between atoms: _380  and  _383
REMARK  166  A    between atoms: _386  and  _388
REMARK  167  A    between atoms: _388  and  _389
REMARK  168  A    between atoms: _388  and  _391
REMARK  169  A    between atoms: _391  and  _392
REMARK  170  A    between atoms: _394  and  _396
REMARK  171  A    between atoms: _396  and  _397
REMARK  172  A    between atoms: _396  and  _399
REMARK  173  A    between atoms: _399  and  _400
REMARK  174  A    between atoms: _410  and  _412
REMARK  175  A    between atoms: _412  and  _413
REMARK  176  A    between atoms: _415  and  _417
REMARK  177  A    between atoms: _417  and  _418
REMARK  178  A    between atoms: _417  and  _420
REMARK  179  A    between atoms: _420  and  _421
REMARK  180  A    between atoms: _421  and  _422
REMARK  181  A    between atoms: _425  and  _427
REMARK  182  A    between atoms: _427  and  _428
REMARK  183  A    between atoms: _430  and  _432
REMARK  184  A    between atoms: _432  and  _433
REMARK  185  A    between atoms: _432  and  _435
REMARK  186  A    between atoms: _435  and  _436
REMARK  187  A    between atoms: _437  and  _439
REMARK  188  A    between atoms: _439  and  _440
REMARK  189  A    between atoms: _443  and  _445
REMARK  190  A    between atoms: _445  and  _446
REMARK  191  A    between atoms: _445  and  _448
REMARK  192  A    between atoms: _448  and  _449
REMARK  193  A    between atoms: _449  and  _450
REMARK  194  A    between atoms: _450  and  _451
REMARK  195  A    between atoms: _460  and  _462
REMARK  196  A    between atoms: _462  and  _463
REMARK  197  A    between atoms: _462  and  _465
REMARK  198  A    between atoms: _465  and  _466
REMARK  199  A    between atoms: _466  and  _467
REMARK  200  A    between atoms: _467  and  _468
REMARK  201  A    between atoms: _468  and  _469
REMARK  202  A    between atoms: _473  and  _475
REMARK  203  A    between atoms: _475  and  _476
REMARK  204  A    between atoms: _475  and  _478
REMARK  205  A    between atoms: _478  and  _479
REMARK  206  A    between atoms: _484  and  _485
REMARK  207  A    between atoms: _487  and  _489
REMARK  208  A    between atoms: _489  and  _490
REMARK  209  A    between atoms: _492  and  _494
REMARK  210  A    between atoms: _494  and  _495
REMARK  211  A    between atoms: _494  and  _497
REMARK  212  A    between atoms: _497  and  _498
REMARK  213  A    between atoms: _501  and  _503
REMARK  214  A    between atoms: _503  and  _504
REMARK  215  A    between atoms: _503  and  _506
REMARK  216  A    between atoms: _506  and  _507
REMARK  217  A    between atoms: _512  and  _513
REMARK  218  A    between atoms: _515  and  _517
REMARK  219  A    between atoms: _517  and  _518
REMARK  220  A    between atoms: _517  and  _520
REMARK  221  A    between atoms: _520  and  _521
REMARK                            x       y       z     vdW  Elec       q    Type
REMARK                         _______ _______ _______ _____ _____    ______ ____
ROOT
ATOM      1  O   HOH     1      -6.270   8.450  14.102  0.00  0.00    +0.000 OA
ENDROOT
TORSDOF 0
REMARK  Name = ../refined-set-2016/2xc4/2xc4_pocket.pdb
REMARK  221 active torsions:
REMARK  status: ('A' for Active; 'I' for Inactive)
REMARK    1  A    between atoms: _1  and  _5
REMARK    2  A    between atoms: _5  and  _6
REMARK    3  A    between atoms: _5  and  _8
REMARK    4  A    between atoms: _8  and  _9
REMARK    5  A    between atoms: _12  and  _14
REMARK    6  A    between atoms: _14  and  _15
REMARK    7  A    between atoms: _14  and  _17
REMARK    8  A    between atoms: _20  and  _22
REMARK    9  A    between atoms: _22  and  _23
REMARK   10  A    between atoms: _22  and  _25
REMARK   11  A    between atoms: _25  and  _26
REMARK   12  A    between atoms: _31  and  _33
REMARK   13  A    between atoms: _33  and  _34
REMARK   14  A    between atoms: _33  and  _36
REMARK   15  A    between atoms: _36  and  _37
REMARK   16  A    between atoms: _37  and  _38
REMARK   17  A    between atoms: _43  and  _45
REMARK   18  A    between atoms: _45  and  _46
REMARK   19  A    between atoms: _45  and  _48
REMARK   20  A    between atoms: _48  and  _49
REMARK   21  A    between atoms: _52  and  _54
REMARK   22  A    between atoms: _54  and  _55
REMARK   23  A    between atoms: _54  and  _57
REMARK   24  A    between atoms: _57  and  _58
REMARK   25  A    between atoms: _58  and  _59
REMARK   26  A    between atoms: _59  and  _60
REMARK   27  A    between atoms: _60  and  _61
REMARK   28  A    between atoms: _65  and  _67
REMARK   29  A    between atoms: _67  and  _68
REMARK   30  A    between atoms: _67  and  _70
REMARK   31  A    between atoms: _70  and  _71
REMARK   32  A    between atoms: _71  and  _72
REMARK   33  A    between atoms: _75  and  _77
REMARK   34  A    between atoms: _77  and  _78
REMARK   35  A    between atoms: _77  and  _80
REMARK   36  A    between atoms: _80  and  _81
REMARK   37  A    between atoms: _84  and  _86
REMARK   38  A    between atoms: _86  and  _87
REMARK   39  A    between atoms: _86  and  _89
REMARK   40  A    between atoms: _89  and  _90
REMARK   41  A    between atoms: _95  and  _96
REMARK   42  A    between atoms: _98  and  _100
REMARK   43  A    between atoms: _100  and  _101
REMARK   44  A    between atoms: _100  and  _103
REMARK   45  A    between atoms: _103  and  _104
REMARK   46  A    between atoms: _107  and  _109
REMARK   47  A    between atoms: _109  and  _110
REMARK   48  A    between atoms: _109  and  _112
REMARK   49  A    between atoms: _112  and  _113
REMARK   50  A    between atoms: _116  and  _118
REMARK   51  A    between atoms: _118  and  _119
REMARK   52  A    between atoms: _118  and  _121
REMARK   53  A    between atoms: _124  and  _126
REMARK   54  A    between atoms: _126  and  _127
REMARK   55  A    between atoms: _126  and  _129
REMARK   56  A    between atoms: _129  and  _130
REMARK   57  A    between atoms: _130  and  _131
REMARK   58  A    between atoms: _131  and  _132
REMARK   59  A    between atoms: _141  and  _143
REMARK   60  A    between atoms: _143  and  _144
REMARK   61  A    between atoms: _143  and  _146
REMARK   62  A    between atoms: _146  and  _147
REMARK   63  A    between atoms: _152  and  _154
REMARK   64  A    between atoms: _154  and  _155
REMARK   65  A    between atoms: _154  and  _157
REMARK   66  A    between atoms: _157  and  _158
REMARK   67  A    between atoms: _158  and  _159
REMARK   68  A    between atoms: _162  and  _164
REMARK   69  A    between atoms: _164  and  _165
REMARK   70  A    between atoms: _164  and  _167
REMARK   71  A    between atoms: _167  and  _168
REMARK   72  A    between atoms: _168  and  _169
REMARK   73  A    between atoms: _169  and  _170
REMARK   74  A    between atoms: _170  and  _171
REMARK   75  A    between atoms: _175  and  _177
REMARK   76  A    between atoms: _177  and  _178
REMARK   77  A    between atoms: _180  and  _182
REMARK   78  A    between atoms: _182  and  _183
REMARK   79  A    between atoms: _182  and  _185
REMARK   80  A    between atoms: _188  and  _190
REMARK   81  A    between atoms: _190  and  _191
REMARK   82  A    between atoms: _190  and  _193
REMARK   83  A    between atoms: _193  and  _194
REMARK   84  A    between atoms: _196  and  _198
REMARK   85  A    between atoms: _198  and  _199
REMARK   86  A    between atoms: _198  and  _201
REMARK   87  A    between atoms: _201  and  _202
REMARK   88  A    between atoms: _204  and  _206
REMARK   89  A    between atoms: _206  and  _207
REMARK   90  A    between atoms: _206  and  _209
REMARK   91  A    between atoms: _209  and  _210
REMARK   92  A    between atoms: _216  and  _218
REMARK   93  A    between atoms: _218  and  _219
REMARK   94  A    between atoms: _218  and  _221
REMARK   95  A    between atoms: _221  and  _222
REMARK   96  A    between atoms: _225  and  _227
REMARK   97  A    between atoms: _227  and  _228
REMARK   98  A    between atoms: _227  and  _230
REMARK   99  A    between atoms: _230  and  _231
REMARK  100  A    between atoms: _234  and  _236
REMARK  101  A    between atoms: _236  and  _237
REMARK  102  A    between atoms: _236  and  _239
REMARK  103  A    between atoms: _239  and  _240
REMARK  104  A    between atoms: _243  and  _245
REMARK  105  A    between atoms: _245  and  _246
REMARK  106  A    between atoms: _245  and  _248
REMARK  107  A    between atoms: _248  and  _249
REMARK  108  A    between atoms: _249  and  _250
REMARK  109  A    between atoms: _252  and  _254
REMARK  110  A    between atoms: _254  and  _255
REMARK  111  A    between atoms: _254  and  _257
REMARK  112  A    between atoms: _257  and  _258
REMARK  113  A    between atoms: _264  and  _266
REMARK  114  A    between atoms: _266  and  _267
REMARK  115  A    between atoms: _266  and  _269
REMARK  116  A    between atoms: _271  and  _273
REMARK  117  A    between atoms: _273  and  _274
REMARK  118  A    between atoms: _277  and  _279
REMARK  119  A    between atoms: _279  and  _280
REMARK  120  A    between atoms: _282  and  _284
REMARK  121  A    between atoms: _284  and  _285
REMARK  122  A    between atoms: _284  and  _287
REMARK  123  A    between atoms: _287  and  _288
REMARK  124  A    between atoms: _288  and  _289
REMARK  125  A    between atoms: _292  and  _294
REMARK  126  A    between atoms: _294  and  _295
REMARK  127  A    between atoms: _294  and  _297
REMARK  128  A    between atoms: _297  and  _298
REMARK  129  A    between atoms: _301  and  _303
REMARK  130  A    between atoms: _303  and  _304
REMARK  131  A    between atoms: _307  and  _309
REMARK  132  A    between atoms: _309  and  _310
REMARK  133  A    between atoms: _309  and  _312
REMARK  134  A    between atoms: _312  and  _313
REMARK  135  A    between atoms: _313  and  _436
REMARK  136  A    between atoms: _314  and  _316
REMARK  137  A    between atoms: _316  and  _317
REMARK  138  A    between atoms: _316  and  _319
REMARK  139  A    between atoms: _319  and  _320
REMARK  140  A    between atoms: _320  and  _321
REMARK  141  A    between atoms: _326  and  _328
REMARK  142  A    between atoms: _328  and  _329
REMARK  143  A    between atoms: _331  and  _333
REMARK  144  A    between atoms: _333  and  _334
REMARK  145  A    between atoms: _333  and  _336
REMARK  146  A    between atoms: _336  and  _337
REMARK  147  A    between atoms: _340  and  _342
REMARK  148  A    between atoms: _342  and  _343
REMARK  149  A    between atoms: _342  and  _345
REMARK  150  A    between atoms: _345  and  _346
REMARK  151  A    between atoms: _348  and  _350
REMARK  152  A    between atoms: _350  and  _351
REMARK  153  A    between atoms: _353  and  _355
REMARK  154  A    between atoms: _355  and  _356
REMARK  155  A    between atoms: _358  and  _360
REMARK  156  A    between atoms: _360  and  _361
REMARK  157  A    between atoms: _360  and  _363
REMARK  158  A    between atoms: _363  and  _364
REMARK  159  A    between atoms: _369  and  _371
REMARK  160  A    between atoms: _371  and  _372
REMARK  161  A    between atoms: _371  and  _374
REMARK  162  A    between atoms: _374  and  _375
REMARK  163  A    between atoms: _378  and  _380
REMARK  164  A    between atoms: _380  and  _381
REMARK  165  A    between atoms: _380  and  _383
REMARK  166  A    between atoms: _386  and  _388
REMARK  167  A    between atoms: _388  and  _389
REMARK  168  A    between atoms: _388  and  _391
REMARK  169  A    between atoms: _391  and  _392
REMARK  170  A    between atoms: _394  and  _396
REMARK  171  A    between atoms: _396  and  _397
REMARK  172  A    between atoms: _396  and  _399
REMARK  173  A    between atoms: _399  and  _400
REMARK  174  A    between atoms: _410  and  _412
REMARK  175  A    between atoms: _412  and  _413
REMARK  176  A    between atoms: _415  and  _417
REMARK  177  A    between atoms: _417  and  _418
REMARK  178  A    between atoms: _417  and  _420
REMARK  179  A    between atoms: _420  and  _421
REMARK  180  A    between atoms: _421  and  _422
REMARK  181  A    between atoms: _425  and  _427
REMARK  182  A    between atoms: _427  and  _428
REMARK  183  A    between atoms: _430  and  _432
REMARK  184  A    between atoms: _432  and  _433
REMARK  185  A    between atoms: _432  and  _435
REMARK  186  A    between atoms: _435  and  _436
REMARK  187  A    between atoms: _437  and  _439
REMARK  188  A    between atoms: _439  and  _440
REMARK  189  A    between atoms: _443  and  _445
REMARK  190  A    between atoms: _445  and  _446
REMARK  191  A    between atoms: _445  and  _448
REMARK  192  A    between atoms: _448  and  _449
REMARK  193  A    between atoms: _449  and  _450
REMARK  194  A    between atoms: _450  and  _451
REMARK  195  A    between atoms: _460  and  _462
REMARK  196  A    between atoms: _462  and  _463
REMARK  197  A    between atoms: _462  and  _465
REMARK  198  A    between atoms: _465  and  _466
REMARK  199  A    between atoms: _466  and  _467
REMARK  200  A    between atoms: _467  and  _468
REMARK  201  A    between atoms: _468  and  _469
REMARK  202  A    between atoms: _473  and  _475
REMARK  203  A    between atoms: _475  and  _476
REMARK  204  A    between atoms: _475  and  _478
REMARK  205  A    between atoms: _478  and  _479
REMARK  206  A    between atoms: _484  and  _485
REMARK  207  A    between atoms: _487  and  _489
REMARK  208  A    between atoms: _489  and  _490
REMARK  209  A    between atoms: _492  and  _494
REMARK  210  A    between atoms: _494  and  _495
REMARK  211  A    between atoms: _494  and  _497
REMARK  212  A    between atoms: _497  and  _498
REMARK  213  A    between atoms: _501  and  _503
REMARK  214  A    between atoms: _503  and  _504
REMARK  215  A    between atoms: _503  and  _506
REMARK  216  A    between atoms: _506  and  _507
REMARK  217  A    between atoms: _512  and  _513
REMARK  218  A    between atoms: _515  and  _517
REMARK  219  A    between atoms: _517  and  _518
REMARK  220  A    between atoms: _517  and  _520
REMARK  221  A    between atoms: _520  and  _521
REMARK                            x       y       z     vdW  Elec       q    Type
REMARK                         _______ _______ _______ _____ _____    ______ ____
ROOT
ATOM      1  O   HOH     1      -0.675  10.883  19.445  0.00  0.00    +0.000 OA
ENDROOT
TORSDOF 0
REMARK  Name = ../refined-set-2016/2xc4/2xc4_pocket.pdb
REMARK  221 active torsions:
REMARK  status: ('A' for Active; 'I' for Inactive)
REMARK    1  A    between atoms: _1  and  _5
REMARK    2  A    between atoms: _5  and  _6
REMARK    3  A    between atoms: _5  and  _8
REMARK    4  A    between atoms: _8  and  _9
REMARK    5  A    between atoms: _12  and  _14
REMARK    6  A    between atoms: _14  and  _15
REMARK    7  A    between atoms: _14  and  _17
REMARK    8  A    between atoms: _20  and  _22
REMARK    9  A    between atoms: _22  and  _23
REMARK   10  A    between atoms: _22  and  _25
REMARK   11  A    between atoms: _25  and  _26
REMARK   12  A    between atoms: _31  and  _33
REMARK   13  A    between atoms: _33  and  _34
REMARK   14  A    between atoms: _33  and  _36
REMARK   15  A    between atoms: _36  and  _37
REMARK   16  A    between atoms: _37  and  _38
REMARK   17  A    between atoms: _43  and  _45
REMARK   18  A    between atoms: _45  and  _46
REMARK   19  A    between atoms: _45  and  _48
REMARK   20  A    between atoms: _48  and  _49
REMARK   21  A    between atoms: _52  and  _54
REMARK   22  A    between atoms: _54  and  _55
REMARK   23  A    between atoms: _54  and  _57
REMARK   24  A    between atoms: _57  and  _58
REMARK   25  A    between atoms: _58  and  _59
REMARK   26  A    between atoms: _59  and  _60
REMARK   27  A    between atoms: _60  and  _61
REMARK   28  A    between atoms: _65  and  _67
REMARK   29  A    between atoms: _67  and  _68
REMARK   30  A    between atoms: _67  and  _70
REMARK   31  A    between atoms: _70  and  _71
REMARK   32  A    between atoms: _71  and  _72
REMARK   33  A    between atoms: _75  and  _77
REMARK   34  A    between atoms: _77  and  _78
REMARK   35  A    between atoms: _77  and  _80
REMARK   36  A    between atoms: _80  and  _81
REMARK   37  A    between atoms: _84  and  _86
REMARK   38  A    between atoms: _86  and  _87
REMARK   39  A    between atoms: _86  and  _89
REMARK   40  A    between atoms: _89  and  _90
REMARK   41  A    between atoms: _95  and  _96
REMARK   42  A    between atoms: _98  and  _100
REMARK   43  A    between atoms: _100  and  _101
REMARK   44  A    between atoms: _100  and  _103
REMARK   45  A    between atoms: _103  and  _104
REMARK   46  A    between atoms: _107  and  _109
REMARK   47  A    between atoms: _109  and  _110
REMARK   48  A    between atoms: _109  and  _112
REMARK   49  A    between atoms: _112  and  _113
REMARK   50  A    between atoms: _116  and  _118
REMARK   51  A    between atoms: _118  and  _119
REMARK   52  A    between atoms: _118  and  _121
REMARK   53  A    between atoms: _124  and  _126
REMARK   54  A    between atoms: _126  and  _127
REMARK   55  A    between atoms: _126  and  _129
REMARK   56  A    between atoms: _129  and  _130
REMARK   57  A    between atoms: _130  and  _131
REMARK   58  A    between atoms: _131  and  _132
REMARK   59  A    between atoms: _141  and  _143
REMARK   60  A    between atoms: _143  and  _144
REMARK   61  A    between atoms: _143  and  _146
REMARK   62  A    between atoms: _146  and  _147
REMARK   63  A    between atoms: _152  and  _154
REMARK   64  A    between atoms: _154  and  _155
REMARK   65  A    between atoms: _154  and  _157
REMARK   66  A    between atoms: _157  and  _158
REMARK   67  A    between atoms: _158  and  _159
REMARK   68  A    between atoms: _162  and  _164
REMARK   69  A    between atoms: _164  and  _165
REMARK   70  A    between atoms: _164  and  _167
REMARK   71  A    between atoms: _167  and  _168
REMARK   72  A    between atoms: _168  and  _169
REMARK   73  A    between atoms: _169  and  _170
REMARK   74  A    between atoms: _170  and  _171
REMARK   75  A    between atoms: _175  and  _177
REMARK   76  A    between atoms: _177  and  _178
REMARK   77  A    between atoms: _180  and  _182
REMARK   78  A    between atoms: _182  and  _183
REMARK   79  A    between atoms: _182  and  _185
REMARK   80  A    between atoms: _188  and  _190
REMARK   81  A    between atoms: _190  and  _191
REMARK   82  A    between atoms: _190  and  _193
REMARK   83  A    between atoms: _193  and  _194
REMARK   84  A    between atoms: _196  and  _198
REMARK   85  A    between atoms: _198  and  _199
REMARK   86  A    between atoms: _198  and  _201
REMARK   87  A    between atoms: _201  and  _202
REMARK   88  A    between atoms: _204  and  _206
REMARK   89  A    between atoms: _206  and  _207
REMARK   90  A    between atoms: _206  and  _209
REMARK   91  A    between atoms: _209  and  _210
REMARK   92  A    between atoms: _216  and  _218
REMARK   93  A    between atoms: _218  and  _219
REMARK   94  A    between atoms: _218  and  _221
REMARK   95  A    between atoms: _221  and  _222
REMARK   96  A    between atoms: _225  and  _227
REMARK   97  A    between atoms: _227  and  _228
REMARK   98  A    between atoms: _227  and  _230
REMARK   99  A    between atoms: _230  and  _231
REMARK  100  A    between atoms: _234  and  _236
REMARK  101  A    between atoms: _236  and  _237
REMARK  102  A    between atoms: _236  and  _239
REMARK  103  A    between atoms: _239  and  _240
REMARK  104  A    between atoms: _243  and  _245
REMARK  105  A    between atoms: _245  and  _246
REMARK  106  A    between atoms: _245  and  _248
REMARK  107  A    between atoms: _248  and  _249
REMARK  108  A    between atoms: _249  and  _250
REMARK  109  A    between atoms: _252  and  _254
REMARK  110  A    between atoms: _254  and  _255
REMARK  111  A    between atoms: _254  and  _257
REMARK  112  A    between atoms: _257  and  _258
REMARK  113  A    between atoms: _264  and  _266
REMARK  114  A    between atoms: _266  and  _267
REMARK  115  A    between atoms: _266  and  _269
REMARK  116  A    between atoms: _271  and  _273
REMARK  117  A    between atoms: _273  and  _274
REMARK  118  A    between atoms: _277  and  _279
REMARK  119  A    between atoms: _279  and  _280
REMARK  120  A    between atoms: _282  and  _284
REMARK  121  A    between atoms: _284  and  _285
REMARK  122  A    between atoms: _284  and  _287
REMARK  123  A    between atoms: _287  and  _288
REMARK  124  A    between atoms: _288  and  _289
REMARK  125  A    between atoms: _292  and  _294
REMARK  126  A    between atoms: _294  and  _295
REMARK  127  A    between atoms: _294  and  _297
REMARK  128  A    between atoms: _297  and  _298
REMARK  129  A    between atoms: _301  and  _303
REMARK  130  A    between atoms: _303  and  _304
REMARK  131  A    between atoms: _307  and  _309
REMARK  132  A    between atoms: _309  and  _310
REMARK  133  A    between atoms: _309  and  _312
REMARK  134  A    between atoms: _312  and  _313
REMARK  135  A    between atoms: _313  and  _436
REMARK  136  A    between atoms: _314  and  _316
REMARK  137  A    between atoms: _316  and  _317
REMARK  138  A    between atoms: _316  and  _319
REMARK  139  A    between atoms: _319  and  _320
REMARK  140  A    between atoms: _320  and  _321
REMARK  141  A    between atoms: _326  and  _328
REMARK  142  A    between atoms: _328  and  _329
REMARK  143  A    between atoms: _331  and  _333
REMARK  144  A    between atoms: _333  and  _334
REMARK  145  A    between atoms: _333  and  _336
REMARK  146  A    between atoms: _336  and  _337
REMARK  147  A    between atoms: _340  and  _342
REMARK  148  A    between atoms: _342  and  _343
REMARK  149  A    between atoms: _342  and  _345
REMARK  150  A    between atoms: _345  and  _346
REMARK  151  A    between atoms: _348  and  _350
REMARK  152  A    between atoms: _350  and  _351
REMARK  153  A    between atoms: _353  and  _355
REMARK  154  A    between atoms: _355  and  _356
REMARK  155  A    between atoms: _358  and  _360
REMARK  156  A    between atoms: _360  and  _361
REMARK  157  A    between atoms: _360  and  _363
REMARK  158  A    between atoms: _363  and  _364
REMARK  159  A    between atoms: _369  and  _371
REMARK  160  A    between atoms: _371  and  _372
REMARK  161  A    between atoms: _371  and  _374
REMARK  162  A    between atoms: _374  and  _375
REMARK  163  A    between atoms: _378  and  _380
REMARK  164  A    between atoms: _380  and  _381
REMARK  165  A    between atoms: _380  and  _383
REMARK  166  A    between atoms: _386  and  _388
REMARK  167  A    between atoms: _388  and  _389
REMARK  168  A    between atoms: _388  and  _391
REMARK  169  A    between atoms: _391  and  _392
REMARK  170  A    between atoms: _394  and  _396
REMARK  171  A    between atoms: _396  and  _397
REMARK  172  A    between atoms: _396  and  _399
REMARK  173  A    between atoms: _399  and  _400
REMARK  174  A    between atoms: _410  and  _412
REMARK  175  A    between atoms: _412  and  _413
REMARK  176  A    between atoms: _415  and  _417
REMARK  177  A    between atoms: _417  and  _418
REMARK  178  A    between atoms: _417  and  _420
REMARK  179  A    between atoms: _420  and  _421
REMARK  180  A    between atoms: _421  and  _422
REMARK  181  A    between atoms: _425  and  _427
REMARK  182  A    between atoms: _427  and  _428
REMARK  183  A    between atoms: _430  and  _432
REMARK  184  A    between atoms: _432  and  _433
REMARK  185  A    between atoms: _432  and  _435
REMARK  186  A    between atoms: _435  and  _436
REMARK  187  A    between atoms: _437  and  _439
REMARK  188  A    between atoms: _439  and  _440
REMARK  189  A    between atoms: _443  and  _445
REMARK  190  A    between atoms: _445  and  _446
REMARK  191  A    between atoms: _445  and  _448
REMARK  192  A    between atoms: _448  and  _449
REMARK  193  A    between atoms: _449  and  _450
REMARK  194  A    between atoms: _450  and  _451
REMARK  195  A    between atoms: _460  and  _462
REMARK  196  A    between atoms: _462  and  _463
REMARK  197  A    between atoms: _462  and  _465
REMARK  198  A    between atoms: _465  and  _466
REMARK  199  A    between atoms: _466  and  _467
REMARK  200  A    between atoms: _467  and  _468
REMARK  201  A    between atoms: _468  and  _469
REMARK  202  A    between atoms: _473  and  _475
REMARK  203  A    between atoms: _475  and  _476
REMARK  204  A    between atoms: _475  and  _478
REMARK  205  A    between atoms: _478  and  _479
REMARK  206  A    between atoms: _484  and  _485
REMARK  207  A    between atoms: _487  and  _489
REMARK  208  A    between atoms: _489  and  _490
REMARK  209  A    between atoms: _492  and  _494
REMARK  210  A    between atoms: _494  and  _495
REMARK  211  A    between atoms: _494  and  _497
REMARK  212  A    between atoms: _497  and  _498
REMARK  213  A    between atoms: _501  and  _503
REMARK  214  A    between atoms: _503  and  _504
REMARK  215  A    between atoms: _503  and  _506
REMARK  216  A    between atoms: _506  and  _507
REMARK  217  A    between atoms: _512  and  _513
REMARK  218  A    between atoms: _515  and  _517
REMARK  219  A    between atoms: _517  and  _518
REMARK  220  A    between atoms: _517  and  _520
REMARK  221  A    between atoms: _520  and  _521
REMARK                            x       y       z     vdW  Elec       q    Type
REMARK                         _______ _______ _______ _____ _____    ______ ____
ROOT
ATOM      1  O   HOH     1      -0.587   1.497  19.559  0.00  0.00    +0.000 OA
ENDROOT
TORSDOF 0
REMARK  Name = ../refined-set-2016/2xc4/2xc4_pocket.pdb
REMARK  221 active torsions:
REMARK  status: ('A' for Active; 'I' for Inactive)
REMARK    1  A    between atoms: _1  and  _5
REMARK    2  A    between atoms: _5  and  _6
REMARK    3  A    between atoms: _5  and  _8
REMARK    4  A    between atoms: _8  and  _9
REMARK    5  A    between atoms: _12  and  _14
REMARK    6  A    between atoms: _14  and  _15
REMARK    7  A    between atoms: _14  and  _17
REMARK    8  A    between atoms: _20  and  _22
REMARK    9  A    between atoms: _22  and  _23
REMARK   10  A    between atoms: _22  and  _25
REMARK   11  A    between atoms: _25  and  _26
REMARK   12  A    between atoms: _31  and  _33
REMARK   13  A    between atoms: _33  and  _34
REMARK   14  A    between atoms: _33  and  _36
REMARK   15  A    between atoms: _36  and  _37
REMARK   16  A    between atoms: _37  and  _38
REMARK   17  A    between atoms: _43  and  _45
REMARK   18  A    between atoms: _45  and  _46
REMARK   19  A    between atoms: _45  and  _48
REMARK   20  A    between atoms: _48  and  _49
REMARK   21  A    between atoms: _52  and  _54
REMARK   22  A    between atoms: _54  and  _55
REMARK   23  A    between atoms: _54  and  _57
REMARK   24  A    between atoms: _57  and  _58
REMARK   25  A    between atoms: _58  and  _59
REMARK   26  A    between atoms: _59  and  _60
REMARK   27  A    between atoms: _60  and  _61
REMARK   28  A    between atoms: _65  and  _67
REMARK   29  A    between atoms: _67  and  _68
REMARK   30  A    between atoms: _67  and  _70
REMARK   31  A    between atoms: _70  and  _71
REMARK   32  A    between atoms: _71  and  _72
REMARK   33  A    between atoms: _75  and  _77
REMARK   34  A    between atoms: _77  and  _78
REMARK   35  A    between atoms: _77  and  _80
REMARK   36  A    between atoms: _80  and  _81
REMARK   37  A    between atoms: _84  and  _86
REMARK   38  A    between atoms: _86  and  _87
REMARK   39  A    between atoms: _86  and  _89
REMARK   40  A    between atoms: _89  and  _90
REMARK   41  A    between atoms: _95  and  _96
REMARK   42  A    between atoms: _98  and  _100
REMARK   43  A    between atoms: _100  and  _101
REMARK   44  A    between atoms: _100  and  _103
REMARK   45  A    between atoms: _103  and  _104
REMARK   46  A    between atoms: _107  and  _109
REMARK   47  A    between atoms: _109  and  _110
REMARK   48  A    between atoms: _109  and  _112
REMARK   49  A    between atoms: _112  and  _113
REMARK   50  A    between atoms: _116  and  _118
REMARK   51  A    between atoms: _118  and  _119
REMARK   52  A    between atoms: _118  and  _121
REMARK   53  A    between atoms: _124  and  _126
REMARK   54  A    between atoms: _126  and  _127
REMARK   55  A    between atoms: _126  and  _129
REMARK   56  A    between atoms: _129  and  _130
REMARK   57  A    between atoms: _130  and  _131
REMARK   58  A    between atoms: _131  and  _132
REMARK   59  A    between atoms: _141  and  _143
REMARK   60  A    between atoms: _143  and  _144
REMARK   61  A    between atoms: _143  and  _146
REMARK   62  A    between atoms: _146  and  _147
REMARK   63  A    between atoms: _152  and  _154
REMARK   64  A    between atoms: _154  and  _155
REMARK   65  A    between atoms: _154  and  _157
REMARK   66  A    between atoms: _157  and  _158
REMARK   67  A    between atoms: _158  and  _159
REMARK   68  A    between atoms: _162  and  _164
REMARK   69  A    between atoms: _164  and  _165
REMARK   70  A    between atoms: _164  and  _167
REMARK   71  A    between atoms: _167  and  _168
REMARK   72  A    between atoms: _168  and  _169
REMARK   73  A    between atoms: _169  and  _170
REMARK   74  A    between atoms: _170  and  _171
REMARK   75  A    between atoms: _175  and  _177
REMARK   76  A    between atoms: _177  and  _178
REMARK   77  A    between atoms: _180  and  _182
REMARK   78  A    between atoms: _182  and  _183
REMARK   79  A    between atoms: _182  and  _185
REMARK   80  A    between atoms: _188  and  _190
REMARK   81  A    between atoms: _190  and  _191
REMARK   82  A    between atoms: _190  and  _193
REMARK   83  A    between atoms: _193  and  _194
REMARK   84  A    between atoms: _196  and  _198
REMARK   85  A    between atoms: _198  and  _199
REMARK   86  A    between atoms: _198  and  _201
REMARK   87  A    between atoms: _201  and  _202
REMARK   88  A    between atoms: _204  and  _206
REMARK   89  A    between atoms: _206  and  _207
REMARK   90  A    between atoms: _206  and  _209
REMARK   91  A    between atoms: _209  and  _210
REMARK   92  A    between atoms: _216  and  _218
REMARK   93  A    between atoms: _218  and  _219
REMARK   94  A    between atoms: _218  and  _221
REMARK   95  A    between atoms: _221  and  _222
REMARK   96  A    between atoms: _225  and  _227
REMARK   97  A    between atoms: _227  and  _228
REMARK   98  A    between atoms: _227  and  _230
REMARK   99  A    between atoms: _230  and  _231
REMARK  100  A    between atoms: _234  and  _236
REMARK  101  A    between atoms: _236  and  _237
REMARK  102  A    between atoms: _236  and  _239
REMARK  103  A    between atoms: _239  and  _240
REMARK  104  A    between atoms: _243  and  _245
REMARK  105  A    between atoms: _245  and  _246
REMARK  106  A    between atoms: _245  and  _248
REMARK  107  A    between atoms: _248  and  _249
REMARK  108  A    between atoms: _249  and  _250
REMARK  109  A    between atoms: _252  and  _254
REMARK  110  A    between atoms: _254  and  _255
REMARK  111  A    between atoms: _254  and  _257
REMARK  112  A    between atoms: _257  and  _258
REMARK  113  A    between atoms: _264  and  _266
REMARK  114  A    between atoms: _266  and  _267
REMARK  115  A    between atoms: _266  and  _269
REMARK  116  A    between atoms: _271  and  _273
REMARK  117  A    between atoms: _273  and  _274
REMARK  118  A    between atoms: _277  and  _279
REMARK  119  A    between atoms: _279  and  _280
REMARK  120  A    between atoms: _282  and  _284
REMARK  121  A    between atoms: _284  and  _285
REMARK  122  A    between atoms: _284  and  _287
REMARK  123  A    between atoms: _287  and  _288
REMARK  124  A    between atoms: _288  and  _289
REMARK  125  A    between atoms: _292  and  _294
REMARK  126  A    between atoms: _294  and  _295
REMARK  127  A    between atoms: _294  and  _297
REMARK  128  A    between atoms: _297  and  _298
REMARK  129  A    between atoms: _301  and  _303
REMARK  130  A    between atoms: _303  and  _304
REMARK  131  A    between atoms: _307  and  _309
REMARK  132  A    between atoms: _309  and  _310
REMARK  133  A    between atoms: _309  and  _312
REMARK  134  A    between atoms: _312  and  _313
REMARK  135  A    between atoms: _313  and  _436
REMARK  136  A    between atoms: _314  and  _316
REMARK  137  A    between atoms: _316  and  _317
REMARK  138  A    between atoms: _316  and  _319
REMARK  139  A    between atoms: _319  and  _320
REMARK  140  A    between atoms: _320  and  _321
REMARK  141  A    between atoms: _326  and  _328
REMARK  142  A    between atoms: _328  and  _329
REMARK  143  A    between atoms: _331  and  _333
REMARK  144  A    between atoms: _333  and  _334
REMARK  145  A    between atoms: _333  and  _336
REMARK  146  A    between atoms: _336  and  _337
REMARK  147  A    between atoms: _340  and  _342
REMARK  148  A    between atoms: _342  and  _343
REMARK  149  A    between atoms: _342  and  _345
REMARK  150  A    between atoms: _345  and  _346
REMARK  151  A    between atoms: _348  and  _350
REMARK  152  A    between atoms: _350  and  _351
REMARK  153  A    between atoms: _353  and  _355
REMARK  154  A    between atoms: _355  and  _356
REMARK  155  A    between atoms: _358  and  _360
REMARK  156  A    between atoms: _360  and  _361
REMARK  157  A    between atoms: _360  and  _363
REMARK  158  A    between atoms: _363  and  _364
REMARK  159  A    between atoms: _369  and  _371
REMARK  160  A    between atoms: _371  and  _372
REMARK  161  A    between atoms: _371  and  _374
REMARK  162  A    between atoms: _374  and  _375
REMARK  163  A    between atoms: _378  and  _380
REMARK  164  A    between atoms: _380  and  _381
REMARK  165  A    between atoms: _380  and  _383
REMARK  166  A    between atoms: _386  and  _388
REMARK  167  A    between atoms: _388  and  _389
REMARK  168  A    between atoms: _388  and  _391
REMARK  169  A    between atoms: _391  and  _392
REMARK  170  A    between atoms: _394  and  _396
REMARK  171  A    between atoms: _396  and  _397
REMARK  172  A    between atoms: _396  and  _399
REMARK  173  A    between atoms: _399  and  _400
REMARK  174  A    between atoms: _410  and  _412
REMARK  175  A    between atoms: _412  and  _413
REMARK  176  A    between atoms: _415  and  _417
REMARK  177  A    between atoms: _417  and  _418
REMARK  178  A    between atoms: _417  and  _420
REMARK  179  A    between atoms: _420  and  _421
REMARK  180  A    between atoms: _421  and  _422
REMARK  181  A    between atoms: _425  and  _427
REMARK  182  A    between atoms: _427  and  _428
REMARK  183  A    between atoms: _430  and  _432
REMARK  184  A    between atoms: _432  and  _433
REMARK  185  A    between atoms: _432  and  _435
REMARK  186  A    between atoms: _435  and  _436
REMARK  187  A    between atoms: _437  and  _439
REMARK  188  A    between atoms: _439  and  _440
REMARK  189  A    between atoms: _443  and  _445
REMARK  190  A    between atoms: _445  and  _446
REMARK  191  A    between atoms: _445  and  _448
REMARK  192  A    between atoms: _448  and  _449
REMARK  193  A    between atoms: _449  and  _450
REMARK  194  A    between atoms: _450  and  _451
REMARK  195  A    between atoms: _460  and  _462
REMARK  196  A    between atoms: _462  and  _463
REMARK  197  A    between atoms: _462  and  _465
REMARK  198  A    between atoms: _465  and  _466
REMARK  199  A    between atoms: _466  and  _467
REMARK  200  A    between atoms: _467  and  _468
REMARK  201  A    between atoms: _468  and  _469
REMARK  202  A    between atoms: _473  and  _475
REMARK  203  A    between atoms: _475  and  _476
REMARK  204  A    between atoms: _475  and  _478
REMARK  205  A    between atoms: _478  and  _479
REMARK  206  A    between atoms: _484  and  _485
REMARK  207  A    between atoms: _487  and  _489
REMARK  208  A    between atoms: _489  and  _490
REMARK  209  A    between atoms: _492  and  _494
REMARK  210  A    between atoms: _494  and  _495
REMARK  211  A    between atoms: _494  and  _497
REMARK  212  A    between atoms: _497  and  _498
REMARK  213  A    between atoms: _501  and  _503
REMARK  214  A    between atoms: _503  and  _504
REMARK  215  A    between atoms: _503  and  _506
REMARK  216  A    between atoms: _506  and  _507
REMARK  217  A    between atoms: _512  and  _513
REMARK  218  A    between atoms: _515  and  _517
REMARK  219  A    between atoms: _517  and  _518
REMARK  220  A    between atoms: _517  and  _520
REMARK  221  A    between atoms: _520  and  _521
REMARK                            x       y       z     vdW  Elec       q    Type
REMARK                         _______ _______ _______ _____ _____    ______ ____
ROOT
ATOM      1  O   HOH     1      -3.740  21.112  24.097  0.00  0.00    +0.000 OA
ENDROOT
TORSDOF 0
REMARK  Name = ../refined-set-2016/2xc4/2xc4_pocket.pdb
REMARK  221 active torsions:
REMARK  status: ('A' for Active; 'I' for Inactive)
REMARK    1  A    between atoms: _1  and  _5
REMARK    2  A    between atoms: _5  and  _6
REMARK    3  A    between atoms: _5  and  _8
REMARK    4  A    between atoms: _8  and  _9
REMARK    5  A    between atoms: _12  and  _14
REMARK    6  A    between atoms: _14  and  _15
REMARK    7  A    between atoms: _14  and  _17
REMARK    8  A    between atoms: _20  and  _22
REMARK    9  A    between atoms: _22  and  _23
REMARK   10  A    between atoms: _22  and  _25
REMARK   11  A    between atoms: _25  and  _26
REMARK   12  A    between atoms: _31  and  _33
REMARK   13  A    between atoms: _33  and  _34
REMARK   14  A    between atoms: _33  and  _36
REMARK   15  A    between atoms: _36  and  _37
REMARK   16  A    between atoms: _37  and  _38
REMARK   17  A    between atoms: _43  and  _45
REMARK   18  A    between atoms: _45  and  _46
REMARK   19  A    between atoms: _45  and  _48
REMARK   20  A    between atoms: _48  and  _49
REMARK   21  A    between atoms: _52  and  _54
REMARK   22  A    between atoms: _54  and  _55
REMARK   23  A    between atoms: _54  and  _57
REMARK   24  A    between atoms: _57  and  _58
REMARK   25  A    between atoms: _58  and  _59
REMARK   26  A    between atoms: _59  and  _60
REMARK   27  A    between atoms: _60  and  _61
REMARK   28  A    between atoms: _65  and  _67
REMARK   29  A    between atoms: _67  and  _68
REMARK   30  A    between atoms: _67  and  _70
REMARK   31  A    between atoms: _70  and  _71
REMARK   32  A    between atoms: _71  and  _72
REMARK   33  A    between atoms: _75  and  _77
REMARK   34  A    between atoms: _77  and  _78
REMARK   35  A    between atoms: _77  and  _80
REMARK   36  A    between atoms: _80  and  _81
REMARK   37  A    between atoms: _84  and  _86
REMARK   38  A    between atoms: _86  and  _87
REMARK   39  A    between atoms: _86  and  _89
REMARK   40  A    between atoms: _89  and  _90
REMARK   41  A    between atoms: _95  and  _96
REMARK   42  A    between atoms: _98  and  _100
REMARK   43  A    between atoms: _100  and  _101
REMARK   44  A    between atoms: _100  and  _103
REMARK   45  A    between atoms: _103  and  _104
REMARK   46  A    between atoms: _107  and  _109
REMARK   47  A    between atoms: _109  and  _110
REMARK   48  A    between atoms: _109  and  _112
REMARK   49  A    between atoms: _112  and  _113
REMARK   50  A    between atoms: _116  and  _118
REMARK   51  A    between atoms: _118  and  _119
REMARK   52  A    between atoms: _118  and  _121
REMARK   53  A    between atoms: _124  and  _126
REMARK   54  A    between atoms: _126  and  _127
REMARK   55  A    between atoms: _126  and  _129
REMARK   56  A    between atoms: _129  and  _130
REMARK   57  A    between atoms: _130  and  _131
REMARK   58  A    between atoms: _131  and  _132
REMARK   59  A    between atoms: _141  and  _143
REMARK   60  A    between atoms: _143  and  _144
REMARK   61  A    between atoms: _143  and  _146
REMARK   62  A    between atoms: _146  and  _147
REMARK   63  A    between atoms: _152  and  _154
REMARK   64  A    between atoms: _154  and  _155
REMARK   65  A    between atoms: _154  and  _157
REMARK   66  A    between atoms: _157  and  _158
REMARK   67  A    between atoms: _158  and  _159
REMARK   68  A    between atoms: _162  and  _164
REMARK   69  A    between atoms: _164  and  _165
REMARK   70  A    between atoms: _164  and  _167
REMARK   71  A    between atoms: _167  and  _168
REMARK   72  A    between atoms: _168  and  _169
REMARK   73  A    between atoms: _169  and  _170
REMARK   74  A    between atoms: _170  and  _171
REMARK   75  A    between atoms: _175  and  _177
REMARK   76  A    between atoms: _177  and  _178
REMARK   77  A    between atoms: _180  and  _182
REMARK   78  A    between atoms: _182  and  _183
REMARK   79  A    between atoms: _182  and  _185
REMARK   80  A    between atoms: _188  and  _190
REMARK   81  A    between atoms: _190  and  _191
REMARK   82  A    between atoms: _190  and  _193
REMARK   83  A    between atoms: _193  and  _194
REMARK   84  A    between atoms: _196  and  _198
REMARK   85  A    between atoms: _198  and  _199
REMARK   86  A    between atoms: _198  and  _201
REMARK   87  A    between atoms: _201  and  _202
REMARK   88  A    between atoms: _204  and  _206
REMARK   89  A    between atoms: _206  and  _207
REMARK   90  A    between atoms: _206  and  _209
REMARK   91  A    between atoms: _209  and  _210
REMARK   92  A    between atoms: _216  and  _218
REMARK   93  A    between atoms: _218  and  _219
REMARK   94  A    between atoms: _218  and  _221
REMARK   95  A    between atoms: _221  and  _222
REMARK   96  A    between atoms: _225  and  _227
REMARK   97  A    between atoms: _227  and  _228
REMARK   98  A    between atoms: _227  and  _230
REMARK   99  A    between atoms: _230  and  _231
REMARK  100  A    between atoms: _234  and  _236
REMARK  101  A    between atoms: _236  and  _237
REMARK  102  A    between atoms: _236  and  _239
REMARK  103  A    between atoms: _239  and  _240
REMARK  104  A    between atoms: _243  and  _245
REMARK  105  A    between atoms: _245  and  _246
REMARK  106  A    between atoms: _245  and  _248
REMARK  107  A    between atoms: _248  and  _249
REMARK  108  A    between atoms: _249  and  _250
REMARK  109  A    between atoms: _252  and  _254
REMARK  110  A    between atoms: _254  and  _255
REMARK  111  A    between atoms: _254  and  _257
REMARK  112  A    between atoms: _257  and  _258
REMARK  113  A    between atoms: _264  and  _266
REMARK  114  A    between atoms: _266  and  _267
REMARK  115  A    between atoms: _266  and  _269
REMARK  116  A    between atoms: _271  and  _273
REMARK  117  A    between atoms: _273  and  _274
REMARK  118  A    between atoms: _277  and  _279
REMARK  119  A    between atoms: _279  and  _280
REMARK  120  A    between atoms: _282  and  _284
REMARK  121  A    between atoms: _284  and  _285
REMARK  122  A    between atoms: _284  and  _287
REMARK  123  A    between atoms: _287  and  _288
REMARK  124  A    between atoms: _288  and  _289
REMARK  125  A    between atoms: _292  and  _294
REMARK  126  A    between atoms: _294  and  _295
REMARK  127  A    between atoms: _294  and  _297
REMARK  128  A    between atoms: _297  and  _298
REMARK  129  A    between atoms: _301  and  _303
REMARK  130  A    between atoms: _303  and  _304
REMARK  131  A    between atoms: _307  and  _309
REMARK  132  A    between atoms: _309  and  _310
REMARK  133  A    between atoms: _309  and  _312
REMARK  134  A    between atoms: _312  and  _313
REMARK  135  A    between atoms: _313  and  _436
REMARK  136  A    between atoms: _314  and  _316
REMARK  137  A    between atoms: _316  and  _317
REMARK  138  A    between atoms: _316  and  _319
REMARK  139  A    between atoms: _319  and  _320
REMARK  140  A    between atoms: _320  and  _321
REMARK  141  A    between atoms: _326  and  _328
REMARK  142  A    between atoms: _328  and  _329
REMARK  143  A    between atoms: _331  and  _333
REMARK  144  A    between atoms: _333  and  _334
REMARK  145  A    between atoms: _333  and  _336
REMARK  146  A    between atoms: _336  and  _337
REMARK  147  A    between atoms: _340  and  _342
REMARK  148  A    between atoms: _342  and  _343
REMARK  149  A    between atoms: _342  and  _345
REMARK  150  A    between atoms: _345  and  _346
REMARK  151  A    between atoms: _348  and  _350
REMARK  152  A    between atoms: _350  and  _351
REMARK  153  A    between atoms: _353  and  _355
REMARK  154  A    between atoms: _355  and  _356
REMARK  155  A    between atoms: _358  and  _360
REMARK  156  A    between atoms: _360  and  _361
REMARK  157  A    between atoms: _360  and  _363
REMARK  158  A    between atoms: _363  and  _364
REMARK  159  A    between atoms: _369  and  _371
REMARK  160  A    between atoms: _371  and  _372
REMARK  161  A    between atoms: _371  and  _374
REMARK  162  A    between atoms: _374  and  _375
REMARK  163  A    between atoms: _378  and  _380
REMARK  164  A    between atoms: _380  and  _381
REMARK  165  A    between atoms: _380  and  _383
REMARK  166  A    between atoms: _386  and  _388
REMARK  167  A    between atoms: _388  and  _389
REMARK  168  A    between atoms: _388  and  _391
REMARK  169  A    between atoms: _391  and  _392
REMARK  170  A    between atoms: _394  and  _396
REMARK  171  A    between atoms: _396  and  _397
REMARK  172  A    between atoms: _396  and  _399
REMARK  173  A    between atoms: _399  and  _400
REMARK  174  A    between atoms: _410  and  _412
REMARK  175  A    between atoms: _412  and  _413
REMARK  176  A    between atoms: _415  and  _417
REMARK  177  A    between atoms: _417  and  _418
REMARK  178  A    between atoms: _417  and  _420
REMARK  179  A    between atoms: _420  and  _421
REMARK  180  A    between atoms: _421  and  _422
REMARK  181  A    between atoms: _425  and  _427
REMARK  182  A    between atoms: _427  and  _428
REMARK  183  A    between atoms: _430  and  _432
REMARK  184  A    between atoms: _432  and  _433
REMARK  185  A    between atoms: _432  and  _435
REMARK  186  A    between atoms: _435  and  _436
REMARK  187  A    between atoms: _437  and  _439
REMARK  188  A    between atoms: _439  and  _440
REMARK  189  A    between atoms: _443  and  _445
REMARK  190  A    between atoms: _445  and  _446
REMARK  191  A    between atoms: _445  and  _448
REMARK  192  A    between atoms: _448  and  _449
REMARK  193  A    between atoms: _449  and  _450
REMARK  194  A    between atoms: _450  and  _451
REMARK  195  A    between atoms: _460  and  _462
REMARK  196  A    between atoms: _462  and  _463
REMARK  197  A    between atoms: _462  and  _465
REMARK  198  A    between atoms: _465  and  _466
REMARK  199  A    between atoms: _466  and  _467
REMARK  200  A    between atoms: _467  and  _468
REMARK  201  A    between atoms: _468  and  _469
REMARK  202  A    between atoms: _473  and  _475
REMARK  203  A    between atoms: _475  and  _476
REMARK  204  A    between atoms: _475  and  _478
REMARK  205  A    between atoms: _478  and  _479
REMARK  206  A    between atoms: _484  and  _485
REMARK  207  A    between atoms: _487  and  _489
REMARK  208  A    between atoms: _489  and  _490
REMARK  209  A    between atoms: _492  and  _494
REMARK  210  A    between atoms: _494  and  _495
REMARK  211  A    between atoms: _494  and  _497
REMARK  212  A    between atoms: _497  and  _498
REMARK  213  A    between atoms: _501  and  _503
REMARK  214  A    between atoms: _503  and  _504
REMARK  215  A    between atoms: _503  and  _506
REMARK  216  A    between atoms: _506  and  _507
REMARK  217  A    between atoms: _512  and  _513
REMARK  218  A    between atoms: _515  and  _517
REMARK  219  A    between atoms: _517  and  _518
REMARK  220  A    between atoms: _517  and  _520
REMARK  221  A    between atoms: _520  and  _521
REMARK                            x       y       z     vdW  Elec       q    Type
REMARK                         _______ _______ _______ _____ _____    ______ ____
ROOT
ATOM      1  O   HOH     1      -5.549  20.632  26.384  0.00  0.00    +0.000 OA
ENDROOT
TORSDOF 0
REMARK  Name = ../refined-set-2016/2xc4/2xc4_pocket.pdb
REMARK  221 active torsions:
REMARK  status: ('A' for Active; 'I' for Inactive)
REMARK    1  A    between atoms: _1  and  _5
REMARK    2  A    between atoms: _5  and  _6
REMARK    3  A    between atoms: _5  and  _8
REMARK    4  A    between atoms: _8  and  _9
REMARK    5  A    between atoms: _12  and  _14
REMARK    6  A    between atoms: _14  and  _15
REMARK    7  A    between atoms: _14  and  _17
REMARK    8  A    between atoms: _20  and  _22
REMARK    9  A    between atoms: _22  and  _23
REMARK   10  A    between atoms: _22  and  _25
REMARK   11  A    between atoms: _25  and  _26
REMARK   12  A    between atoms: _31  and  _33
REMARK   13  A    between atoms: _33  and  _34
REMARK   14  A    between atoms: _33  and  _36
REMARK   15  A    between atoms: _36  and  _37
REMARK   16  A    between atoms: _37  and  _38
REMARK   17  A    between atoms: _43  and  _45
REMARK   18  A    between atoms: _45  and  _46
REMARK   19  A    between atoms: _45  and  _48
REMARK   20  A    between atoms: _48  and  _49
REMARK   21  A    between atoms: _52  and  _54
REMARK   22  A    between atoms: _54  and  _55
REMARK   23  A    between atoms: _54  and  _57
REMARK   24  A    between atoms: _57  and  _58
REMARK   25  A    between atoms: _58  and  _59
REMARK   26  A    between atoms: _59  and  _60
REMARK   27  A    between atoms: _60  and  _61
REMARK   28  A    between atoms: _65  and  _67
REMARK   29  A    between atoms: _67  and  _68
REMARK   30  A    between atoms: _67  and  _70
REMARK   31  A    between atoms: _70  and  _71
REMARK   32  A    between atoms: _71  and  _72
REMARK   33  A    between atoms: _75  and  _77
REMARK   34  A    between atoms: _77  and  _78
REMARK   35  A    between atoms: _77  and  _80
REMARK   36  A    between atoms: _80  and  _81
REMARK   37  A    between atoms: _84  and  _86
REMARK   38  A    between atoms: _86  and  _87
REMARK   39  A    between atoms: _86  and  _89
REMARK   40  A    between atoms: _89  and  _90
REMARK   41  A    between atoms: _95  and  _96
REMARK   42  A    between atoms: _98  and  _100
REMARK   43  A    between atoms: _100  and  _101
REMARK   44  A    between atoms: _100  and  _103
REMARK   45  A    between atoms: _103  and  _104
REMARK   46  A    between atoms: _107  and  _109
REMARK   47  A    between atoms: _109  and  _110
REMARK   48  A    between atoms: _109  and  _112
REMARK   49  A    between atoms: _112  and  _113
REMARK   50  A    between atoms: _116  and  _118
REMARK   51  A    between atoms: _118  and  _119
REMARK   52  A    between atoms: _118  and  _121
REMARK   53  A    between atoms: _124  and  _126
REMARK   54  A    between atoms: _126  and  _127
REMARK   55  A    between atoms: _126  and  _129
REMARK   56  A    between atoms: _129  and  _130
REMARK   57  A    between atoms: _130  and  _131
REMARK   58  A    between atoms: _131  and  _132
REMARK   59  A    between atoms: _141  and  _143
REMARK   60  A    between atoms: _143  and  _144
REMARK   61  A    between atoms: _143  and  _146
REMARK   62  A    between atoms: _146  and  _147
REMARK   63  A    between atoms: _152  and  _154
REMARK   64  A    between atoms: _154  and  _155
REMARK   65  A    between atoms: _154  and  _157
REMARK   66  A    between atoms: _157  and  _158
REMARK   67  A    between atoms: _158  and  _159
REMARK   68  A    between atoms: _162  and  _164
REMARK   69  A    between atoms: _164  and  _165
REMARK   70  A    between atoms: _164  and  _167
REMARK   71  A    between atoms: _167  and  _168
REMARK   72  A    between atoms: _168  and  _169
REMARK   73  A    between atoms: _169  and  _170
REMARK   74  A    between atoms: _170  and  _171
REMARK   75  A    between atoms: _175  and  _177
REMARK   76  A    between atoms: _177  and  _178
REMARK   77  A    between atoms: _180  and  _182
REMARK   78  A    between atoms: _182  and  _183
REMARK   79  A    between atoms: _182  and  _185
REMARK   80  A    between atoms: _188  and  _190
REMARK   81  A    between atoms: _190  and  _191
REMARK   82  A    between atoms: _190  and  _193
REMARK   83  A    between atoms: _193  and  _194
REMARK   84  A    between atoms: _196  and  _198
REMARK   85  A    between atoms: _198  and  _199
REMARK   86  A    between atoms: _198  and  _201
REMARK   87  A    between atoms: _201  and  _202
REMARK   88  A    between atoms: _204  and  _206
REMARK   89  A    between atoms: _206  and  _207
REMARK   90  A    between atoms: _206  and  _209
REMARK   91  A    between atoms: _209  and  _210
REMARK   92  A    between atoms: _216  and  _218
REMARK   93  A    between atoms: _218  and  _219
REMARK   94  A    between atoms: _218  and  _221
REMARK   95  A    between atoms: _221  and  _222
REMARK   96  A    between atoms: _225  and  _227
REMARK   97  A    between atoms: _227  and  _228
REMARK   98  A    between atoms: _227  and  _230
REMARK   99  A    between atoms: _230  and  _231
REMARK  100  A    between atoms: _234  and  _236
REMARK  101  A    between atoms: _236  and  _237
REMARK  102  A    between atoms: _236  and  _239
REMARK  103  A    between atoms: _239  and  _240
REMARK  104  A    between atoms: _243  and  _245
REMARK  105  A    between atoms: _245  and  _246
REMARK  106  A    between atoms: _245  and  _248
REMARK  107  A    between atoms: _248  and  _249
REMARK  108  A    between atoms: _249  and  _250
REMARK  109  A    between atoms: _252  and  _254
REMARK  110  A    between atoms: _254  and  _255
REMARK  111  A    between atoms: _254  and  _257
REMARK  112  A    between atoms: _257  and  _258
REMARK  113  A    between atoms: _264  and  _266
REMARK  114  A    between atoms: _266  and  _267
REMARK  115  A    between atoms: _266  and  _269
REMARK  116  A    between atoms: _271  and  _273
REMARK  117  A    between atoms: _273  and  _274
REMARK  118  A    between atoms: _277  and  _279
REMARK  119  A    between atoms: _279  and  _280
REMARK  120  A    between atoms: _282  and  _284
REMARK  121  A    between atoms: _284  and  _285
REMARK  122  A    between atoms: _284  and  _287
REMARK  123  A    between atoms: _287  and  _288
REMARK  124  A    between atoms: _288  and  _289
REMARK  125  A    between atoms: _292  and  _294
REMARK  126  A    between atoms: _294  and  _295
REMARK  127  A    between atoms: _294  and  _297
REMARK  128  A    between atoms: _297  and  _298
REMARK  129  A    between atoms: _301  and  _303
REMARK  130  A    between atoms: _303  and  _304
REMARK  131  A    between atoms: _307  and  _309
REMARK  132  A    between atoms: _309  and  _310
REMARK  133  A    between atoms: _309  and  _312
REMARK  134  A    between atoms: _312  and  _313
REMARK  135  A    between atoms: _313  and  _436
REMARK  136  A    between atoms: _314  and  _316
REMARK  137  A    between atoms: _316  and  _317
REMARK  138  A    between atoms: _316  and  _319
REMARK  139  A    between atoms: _319  and  _320
REMARK  140  A    between atoms: _320  and  _321
REMARK  141  A    between atoms: _326  and  _328
REMARK  142  A    between atoms: _328  and  _329
REMARK  143  A    between atoms: _331  and  _333
REMARK  144  A    between atoms: _333  and  _334
REMARK  145  A    between atoms: _333  and  _336
REMARK  146  A    between atoms: _336  and  _337
REMARK  147  A    between atoms: _340  and  _342
REMARK  148  A    between atoms: _342  and  _343
REMARK  149  A    between atoms: _342  and  _345
REMARK  150  A    between atoms: _345  and  _346
REMARK  151  A    between atoms: _348  and  _350
REMARK  152  A    between atoms: _350  and  _351
REMARK  153  A    between atoms: _353  and  _355
REMARK  154  A    between atoms: _355  and  _356
REMARK  155  A    between atoms: _358  and  _360
REMARK  156  A    between atoms: _360  and  _361
REMARK  157  A    between atoms: _360  and  _363
REMARK  158  A    between atoms: _363  and  _364
REMARK  159  A    between atoms: _369  and  _371
REMARK  160  A    between atoms: _371  and  _372
REMARK  161  A    between atoms: _371  and  _374
REMARK  162  A    between atoms: _374  and  _375
REMARK  163  A    between atoms: _378  and  _380
REMARK  164  A    between atoms: _380  and  _381
REMARK  165  A    between atoms: _380  and  _383
REMARK  166  A    between atoms: _386  and  _388
REMARK  167  A    between atoms: _388  and  _389
REMARK  168  A    between atoms: _388  and  _391
REMARK  169  A    between atoms: _391  and  _392
REMARK  170  A    between atoms: _394  and  _396
REMARK  171  A    between atoms: _396  and  _397
REMARK  172  A    between atoms: _396  and  _399
REMARK  173  A    between atoms: _399  and  _400
REMARK  174  A    between atoms: _410  and  _412
REMARK  175  A    between atoms: _412  and  _413
REMARK  176  A    between atoms: _415  and  _417
REMARK  177  A    between atoms: _417  and  _418
REMARK  178  A    between atoms: _417  and  _420
REMARK  179  A    between atoms: _420  and  _421
REMARK  180  A    between atoms: _421  and  _422
REMARK  181  A    between atoms: _425  and  _427
REMARK  182  A    between atoms: _427  and  _428
REMARK  183  A    between atoms: _430  and  _432
REMARK  184  A    between atoms: _432  and  _433
REMARK  185  A    between atoms: _432  and  _435
REMARK  186  A    between atoms: _435  and  _436
REMARK  187  A    between atoms: _437  and  _439
REMARK  188  A    between atoms: _439  and  _440
REMARK  189  A    between atoms: _443  and  _445
REMARK  190  A    between atoms: _445  and  _446
REMARK  191  A    between atoms: _445  and  _448
REMARK  192  A    between atoms: _448  and  _449
REMARK  193  A    between atoms: _449  and  _450
REMARK  194  A    between atoms: _450  and  _451
REMARK  195  A    between atoms: _460  and  _462
REMARK  196  A    between atoms: _462  and  _463
REMARK  197  A    between atoms: _462  and  _465
REMARK  198  A    between atoms: _465  and  _466
REMARK  199  A    between atoms: _466  and  _467
REMARK  200  A    between atoms: _467  and  _468
REMARK  201  A    between atoms: _468  and  _469
REMARK  202  A    between atoms: _473  and  _475
REMARK  203  A    between atoms: _475  and  _476
REMARK  204  A    between atoms: _475  and  _478
REMARK  205  A    between atoms: _478  and  _479
REMARK  206  A    between atoms: _484  and  _485
REMARK  207  A    between atoms: _487  and  _489
REMARK  208  A    between atoms: _489  and  _490
REMARK  209  A    between atoms: _492  and  _494
REMARK  210  A    between atoms: _494  and  _495
REMARK  211  A    between atoms: _494  and  _497
REMARK  212  A    between atoms: _497  and  _498
REMARK  213  A    between atoms: _501  and  _503
REMARK  214  A    between atoms: _503  and  _504
REMARK  215  A    between atoms: _503  and  _506
REMARK  216  A    between atoms: _506  and  _507
REMARK  217  A    between atoms: _512  and  _513
REMARK  218  A    between atoms: _515  and  _517
REMARK  219  A    between atoms: _517  and  _518
REMARK  220  A    between atoms: _517  and  _520
REMARK  221  A    between atoms: _520  and  _521
REMARK                            x       y       z     vdW  Elec       q    Type
REMARK                         _______ _______ _______ _____ _____    ______ ____
ROOT
ATOM      1  O   HOH     1      -7.364  18.158  33.128  0.00  0.00    +0.000 OA
ENDROOT
TORSDOF 0
REMARK  Name = ../refined-set-2016/2xc4/2xc4_pocket.pdb
REMARK  221 active torsions:
REMARK  status: ('A' for Active; 'I' for Inactive)
REMARK    1  A    between atoms: _1  and  _5
REMARK    2  A    between atoms: _5  and  _6
REMARK    3  A    between atoms: _5  and  _8
REMARK    4  A    between atoms: _8  and  _9
REMARK    5  A    between atoms: _12  and  _14
REMARK    6  A    between atoms: _14  and  _15
REMARK    7  A    between atoms: _14  and  _17
REMARK    8  A    between atoms: _20  and  _22
REMARK    9  A    between atoms: _22  and  _23
REMARK   10  A    between atoms: _22  and  _25
REMARK   11  A    between atoms: _25  and  _26
REMARK   12  A    between atoms: _31  and  _33
REMARK   13  A    between atoms: _33  and  _34
REMARK   14  A    between atoms: _33  and  _36
REMARK   15  A    between atoms: _36  and  _37
REMARK   16  A    between atoms: _37  and  _38
REMARK   17  A    between atoms: _43  and  _45
REMARK   18  A    between atoms: _45  and  _46
REMARK   19  A    between atoms: _45  and  _48
REMARK   20  A    between atoms: _48  and  _49
REMARK   21  A    between atoms: _52  and  _54
REMARK   22  A    between atoms: _54  and  _55
REMARK   23  A    between atoms: _54  and  _57
REMARK   24  A    between atoms: _57  and  _58
REMARK   25  A    between atoms: _58  and  _59
REMARK   26  A    between atoms: _59  and  _60
REMARK   27  A    between atoms: _60  and  _61
REMARK   28  A    between atoms: _65  and  _67
REMARK   29  A    between atoms: _67  and  _68
REMARK   30  A    between atoms: _67  and  _70
REMARK   31  A    between atoms: _70  and  _71
REMARK   32  A    between atoms: _71  and  _72
REMARK   33  A    between atoms: _75  and  _77
REMARK   34  A    between atoms: _77  and  _78
REMARK   35  A    between atoms: _77  and  _80
REMARK   36  A    between atoms: _80  and  _81
REMARK   37  A    between atoms: _84  and  _86
REMARK   38  A    between atoms: _86  and  _87
REMARK   39  A    between atoms: _86  and  _89
REMARK   40  A    between atoms: _89  and  _90
REMARK   41  A    between atoms: _95  and  _96
REMARK   42  A    between atoms: _98  and  _100
REMARK   43  A    between atoms: _100  and  _101
REMARK   44  A    between atoms: _100  and  _103
REMARK   45  A    between atoms: _103  and  _104
REMARK   46  A    between atoms: _107  and  _109
REMARK   47  A    between atoms: _109  and  _110
REMARK   48  A    between atoms: _109  and  _112
REMARK   49  A    between atoms: _112  and  _113
REMARK   50  A    between atoms: _116  and  _118
REMARK   51  A    between atoms: _118  and  _119
REMARK   52  A    between atoms: _118  and  _121
REMARK   53  A    between atoms: _124  and  _126
REMARK   54  A    between atoms: _126  and  _127
REMARK   55  A    between atoms: _126  and  _129
REMARK   56  A    between atoms: _129  and  _130
REMARK   57  A    between atoms: _130  and  _131
REMARK   58  A    between atoms: _131  and  _132
REMARK   59  A    between atoms: _141  and  _143
REMARK   60  A    between atoms: _143  and  _144
REMARK   61  A    between atoms: _143  and  _146
REMARK   62  A    between atoms: _146  and  _147
REMARK   63  A    between atoms: _152  and  _154
REMARK   64  A    between atoms: _154  and  _155
REMARK   65  A    between atoms: _154  and  _157
REMARK   66  A    between atoms: _157  and  _158
REMARK   67  A    between atoms: _158  and  _159
REMARK   68  A    between atoms: _162  and  _164
REMARK   69  A    between atoms: _164  and  _165
REMARK   70  A    between atoms: _164  and  _167
REMARK   71  A    between atoms: _167  and  _168
REMARK   72  A    between atoms: _168  and  _169
REMARK   73  A    between atoms: _169  and  _170
REMARK   74  A    between atoms: _170  and  _171
REMARK   75  A    between atoms: _175  and  _177
REMARK   76  A    between atoms: _177  and  _178
REMARK   77  A    between atoms: _180  and  _182
REMARK   78  A    between atoms: _182  and  _183
REMARK   79  A    between atoms: _182  and  _185
REMARK   80  A    between atoms: _188  and  _190
REMARK   81  A    between atoms: _190  and  _191
REMARK   82  A    between atoms: _190  and  _193
REMARK   83  A    between atoms: _193  and  _194
REMARK   84  A    between atoms: _196  and  _198
REMARK   85  A    between atoms: _198  and  _199
REMARK   86  A    between atoms: _198  and  _201
REMARK   87  A    between atoms: _201  and  _202
REMARK   88  A    between atoms: _204  and  _206
REMARK   89  A    between atoms: _206  and  _207
REMARK   90  A    between atoms: _206  and  _209
REMARK   91  A    between atoms: _209  and  _210
REMARK   92  A    between atoms: _216  and  _218
REMARK   93  A    between atoms: _218  and  _219
REMARK   94  A    between atoms: _218  and  _221
REMARK   95  A    between atoms: _221  and  _222
REMARK   96  A    between atoms: _225  and  _227
REMARK   97  A    between atoms: _227  and  _228
REMARK   98  A    between atoms: _227  and  _230
REMARK   99  A    between atoms: _230  and  _231
REMARK  100  A    between atoms: _234  and  _236
REMARK  101  A    between atoms: _236  and  _237
REMARK  102  A    between atoms: _236  and  _239
REMARK  103  A    between atoms: _239  and  _240
REMARK  104  A    between atoms: _243  and  _245
REMARK  105  A    between atoms: _245  and  _246
REMARK  106  A    between atoms: _245  and  _248
REMARK  107  A    between atoms: _248  and  _249
REMARK  108  A    between atoms: _249  and  _250
REMARK  109  A    between atoms: _252  and  _254
REMARK  110  A    between atoms: _254  and  _255
REMARK  111  A    between atoms: _254  and  _257
REMARK  112  A    between atoms: _257  and  _258
REMARK  113  A    between atoms: _264  and  _266
REMARK  114  A    between atoms: _266  and  _267
REMARK  115  A    between atoms: _266  and  _269
REMARK  116  A    between atoms: _271  and  _273
REMARK  117  A    between atoms: _273  and  _274
REMARK  118  A    between atoms: _277  and  _279
REMARK  119  A    between atoms: _279  and  _280
REMARK  120  A    between atoms: _282  and  _284
REMARK  121  A    between atoms: _284  and  _285
REMARK  122  A    between atoms: _284  and  _287
REMARK  123  A    between atoms: _287  and  _288
REMARK  124  A    between atoms: _288  and  _289
REMARK  125  A    between atoms: _292  and  _294
REMARK  126  A    between atoms: _294  and  _295
REMARK  127  A    between atoms: _294  and  _297
REMARK  128  A    between atoms: _297  and  _298
REMARK  129  A    between atoms: _301  and  _303
REMARK  130  A    between atoms: _303  and  _304
REMARK  131  A    between atoms: _307  and  _309
REMARK  132  A    between atoms: _309  and  _310
REMARK  133  A    between atoms: _309  and  _312
REMARK  134  A    between atoms: _312  and  _313
REMARK  135  A    between atoms: _313  and  _436
REMARK  136  A    between atoms: _314  and  _316
REMARK  137  A    between atoms: _316  and  _317
REMARK  138  A    between atoms: _316  and  _319
REMARK  139  A    between atoms: _319  and  _320
REMARK  140  A    between atoms: _320  and  _321
REMARK  141  A    between atoms: _326  and  _328
REMARK  142  A    between atoms: _328  and  _329
REMARK  143  A    between atoms: _331  and  _333
REMARK  144  A    between atoms: _333  and  _334
REMARK  145  A    between atoms: _333  and  _336
REMARK  146  A    between atoms: _336  and  _337
REMARK  147  A    between atoms: _340  and  _342
REMARK  148  A    between atoms: _342  and  _343
REMARK  149  A    between atoms: _342  and  _345
REMARK  150  A    between atoms: _345  and  _346
REMARK  151  A    between atoms: _348  and  _350
REMARK  152  A    between atoms: _350  and  _351
REMARK  153  A    between atoms: _353  and  _355
REMARK  154  A    between atoms: _355  and  _356
REMARK  155  A    between atoms: _358  and  _360
REMARK  156  A    between atoms: _360  and  _361
REMARK  157  A    between atoms: _360  and  _363
REMARK  158  A    between atoms: _363  and  _364
REMARK  159  A    between atoms: _369  and  _371
REMARK  160  A    between atoms: _371  and  _372
REMARK  161  A    between atoms: _371  and  _374
REMARK  162  A    between atoms: _374  and  _375
REMARK  163  A    between atoms: _378  and  _380
REMARK  164  A    between atoms: _380  and  _381
REMARK  165  A    between atoms: _380  and  _383
REMARK  166  A    between atoms: _386  and  _388
REMARK  167  A    between atoms: _388  and  _389
REMARK  168  A    between atoms: _388  and  _391
REMARK  169  A    between atoms: _391  and  _392
REMARK  170  A    between atoms: _394  and  _396
REMARK  171  A    between atoms: _396  and  _397
REMARK  172  A    between atoms: _396  and  _399
REMARK  173  A    between atoms: _399  and  _400
REMARK  174  A    between atoms: _410  and  _412
REMARK  175  A    between atoms: _412  and  _413
REMARK  176  A    between atoms: _415  and  _417
REMARK  177  A    between atoms: _417  and  _418
REMARK  178  A    between atoms: _417  and  _420
REMARK  179  A    between atoms: _420  and  _421
REMARK  180  A    between atoms: _421  and  _422
REMARK  181  A    between atoms: _425  and  _427
REMARK  182  A    between atoms: _427  and  _428
REMARK  183  A    between atoms: _430  and  _432
REMARK  184  A    between atoms: _432  and  _433
REMARK  185  A    between atoms: _432  and  _435
REMARK  186  A    between atoms: _435  and  _436
REMARK  187  A    between atoms: _437  and  _439
REMARK  188  A    between atoms: _439  and  _440
REMARK  189  A    between atoms: _443  and  _445
REMARK  190  A    between atoms: _445  and  _446
REMARK  191  A    between atoms: _445  and  _448
REMARK  192  A    between atoms: _448  and  _449
REMARK  193  A    between atoms: _449  and  _450
REMARK  194  A    between atoms: _450  and  _451
REMARK  195  A    between atoms: _460  and  _462
REMARK  196  A    between atoms: _462  and  _463
REMARK  197  A    between atoms: _462  and  _465
REMARK  198  A    between atoms: _465  and  _466
REMARK  199  A    between atoms: _466  and  _467
REMARK  200  A    between atoms: _467  and  _468
REMARK  201  A    between atoms: _468  and  _469
REMARK  202  A    between atoms: _473  and  _475
REMARK  203  A    between atoms: _475  and  _476
REMARK  204  A    between atoms: _475  and  _478
REMARK  205  A    between atoms: _478  and  _479
REMARK  206  A    between atoms: _484  and  _485
REMARK  207  A    between atoms: _487  and  _489
REMARK  208  A    between atoms: _489  and  _490
REMARK  209  A    between atoms: _492  and  _494
REMARK  210  A    between atoms: _494  and  _495
REMARK  211  A    between atoms: _494  and  _497
REMARK  212  A    between atoms: _497  and  _498
REMARK  213  A    between atoms: _501  and  _503
REMARK  214  A    between atoms: _503  and  _504
REMARK  215  A    between atoms: _503  and  _506
REMARK  216  A    between atoms: _506  and  _507
REMARK  217  A    between atoms: _512  and  _513
REMARK  218  A    between atoms: _515  and  _517
REMARK  219  A    between atoms: _517  and  _518
REMARK  220  A    between atoms: _517  and  _520
REMARK  221  A    between atoms: _520  and  _521
REMARK                            x       y       z     vdW  Elec       q    Type
REMARK                         _______ _______ _______ _____ _____    ______ ____
ROOT
ATOM      1  O   HOH     1      -5.871  13.946  33.852  0.00  0.00    +0.000 OA
ENDROOT
TORSDOF 0
REMARK  Name = ../refined-set-2016/2xc4/2xc4_pocket.pdb
REMARK  221 active torsions:
REMARK  status: ('A' for Active; 'I' for Inactive)
REMARK    1  A    between atoms: _1  and  _5
REMARK    2  A    between atoms: _5  and  _6
REMARK    3  A    between atoms: _5  and  _8
REMARK    4  A    between atoms: _8  and  _9
REMARK    5  A    between atoms: _12  and  _14
REMARK    6  A    between atoms: _14  and  _15
REMARK    7  A    between atoms: _14  and  _17
REMARK    8  A    between atoms: _20  and  _22
REMARK    9  A    between atoms: _22  and  _23
REMARK   10  A    between atoms: _22  and  _25
REMARK   11  A    between atoms: _25  and  _26
REMARK   12  A    between atoms: _31  and  _33
REMARK   13  A    between atoms: _33  and  _34
REMARK   14  A    between atoms: _33  and  _36
REMARK   15  A    between atoms: _36  and  _37
REMARK   16  A    between atoms: _37  and  _38
REMARK   17  A    between atoms: _43  and  _45
REMARK   18  A    between atoms: _45  and  _46
REMARK   19  A    between atoms: _45  and  _48
REMARK   20  A    between atoms: _48  and  _49
REMARK   21  A    between atoms: _52  and  _54
REMARK   22  A    between atoms: _54  and  _55
REMARK   23  A    between atoms: _54  and  _57
REMARK   24  A    between atoms: _57  and  _58
REMARK   25  A    between atoms: _58  and  _59
REMARK   26  A    between atoms: _59  and  _60
REMARK   27  A    between atoms: _60  and  _61
REMARK   28  A    between atoms: _65  and  _67
REMARK   29  A    between atoms: _67  and  _68
REMARK   30  A    between atoms: _67  and  _70
REMARK   31  A    between atoms: _70  and  _71
REMARK   32  A    between atoms: _71  and  _72
REMARK   33  A    between atoms: _75  and  _77
REMARK   34  A    between atoms: _77  and  _78
REMARK   35  A    between atoms: _77  and  _80
REMARK   36  A    between atoms: _80  and  _81
REMARK   37  A    between atoms: _84  and  _86
REMARK   38  A    between atoms: _86  and  _87
REMARK   39  A    between atoms: _86  and  _89
REMARK   40  A    between atoms: _89  and  _90
REMARK   41  A    between atoms: _95  and  _96
REMARK   42  A    between atoms: _98  and  _100
REMARK   43  A    between atoms: _100  and  _101
REMARK   44  A    between atoms: _100  and  _103
REMARK   45  A    between atoms: _103  and  _104
REMARK   46  A    between atoms: _107  and  _109
REMARK   47  A    between atoms: _109  and  _110
REMARK   48  A    between atoms: _109  and  _112
REMARK   49  A    between atoms: _112  and  _113
REMARK   50  A    between atoms: _116  and  _118
REMARK   51  A    between atoms: _118  and  _119
REMARK   52  A    between atoms: _118  and  _121
REMARK   53  A    between atoms: _124  and  _126
REMARK   54  A    between atoms: _126  and  _127
REMARK   55  A    between atoms: _126  and  _129
REMARK   56  A    between atoms: _129  and  _130
REMARK   57  A    between atoms: _130  and  _131
REMARK   58  A    between atoms: _131  and  _132
REMARK   59  A    between atoms: _141  and  _143
REMARK   60  A    between atoms: _143  and  _144
REMARK   61  A    between atoms: _143  and  _146
REMARK   62  A    between atoms: _146  and  _147
REMARK   63  A    between atoms: _152  and  _154
REMARK   64  A    between atoms: _154  and  _155
REMARK   65  A    between atoms: _154  and  _157
REMARK   66  A    between atoms: _157  and  _158
REMARK   67  A    between atoms: _158  and  _159
REMARK   68  A    between atoms: _162  and  _164
REMARK   69  A    between atoms: _164  and  _165
REMARK   70  A    between atoms: _164  and  _167
REMARK   71  A    between atoms: _167  and  _168
REMARK   72  A    between atoms: _168  and  _169
REMARK   73  A    between atoms: _169  and  _170
REMARK   74  A    between atoms: _170  and  _171
REMARK   75  A    between atoms: _175  and  _177
REMARK   76  A    between atoms: _177  and  _178
REMARK   77  A    between atoms: _180  and  _182
REMARK   78  A    between atoms: _182  and  _183
REMARK   79  A    between atoms: _182  and  _185
REMARK   80  A    between atoms: _188  and  _190
REMARK   81  A    between atoms: _190  and  _191
REMARK   82  A    between atoms: _190  and  _193
REMARK   83  A    between atoms: _193  and  _194
REMARK   84  A    between atoms: _196  and  _198
REMARK   85  A    between atoms: _198  and  _199
REMARK   86  A    between atoms: _198  and  _201
REMARK   87  A    between atoms: _201  and  _202
REMARK   88  A    between atoms: _204  and  _206
REMARK   89  A    between atoms: _206  and  _207
REMARK   90  A    between atoms: _206  and  _209
REMARK   91  A    between atoms: _209  and  _210
REMARK   92  A    between atoms: _216  and  _218
REMARK   93  A    between atoms: _218  and  _219
REMARK   94  A    between atoms: _218  and  _221
REMARK   95  A    between atoms: _221  and  _222
REMARK   96  A    between atoms: _225  and  _227
REMARK   97  A    between atoms: _227  and  _228
REMARK   98  A    between atoms: _227  and  _230
REMARK   99  A    between atoms: _230  and  _231
REMARK  100  A    between atoms: _234  and  _236
REMARK  101  A    between atoms: _236  and  _237
REMARK  102  A    between atoms: _236  and  _239
REMARK  103  A    between atoms: _239  and  _240
REMARK  104  A    between atoms: _243  and  _245
REMARK  105  A    between atoms: _245  and  _246
REMARK  106  A    between atoms: _245  and  _248
REMARK  107  A    between atoms: _248  and  _249
REMARK  108  A    between atoms: _249  and  _250
REMARK  109  A    between atoms: _252  and  _254
REMARK  110  A    between atoms: _254  and  _255
REMARK  111  A    between atoms: _254  and  _257
REMARK  112  A    between atoms: _257  and  _258
REMARK  113  A    between atoms: _264  and  _266
REMARK  114  A    between atoms: _266  and  _267
REMARK  115  A    between atoms: _266  and  _269
REMARK  116  A    between atoms: _271  and  _273
REMARK  117  A    between atoms: _273  and  _274
REMARK  118  A    between atoms: _277  and  _279
REMARK  119  A    between atoms: _279  and  _280
REMARK  120  A    between atoms: _282  and  _284
REMARK  121  A    between atoms: _284  and  _285
REMARK  122  A    between atoms: _284  and  _287
REMARK  123  A    between atoms: _287  and  _288
REMARK  124  A    between atoms: _288  and  _289
REMARK  125  A    between atoms: _292  and  _294
REMARK  126  A    between atoms: _294  and  _295
REMARK  127  A    between atoms: _294  and  _297
REMARK  128  A    between atoms: _297  and  _298
REMARK  129  A    between atoms: _301  and  _303
REMARK  130  A    between atoms: _303  and  _304
REMARK  131  A    between atoms: _307  and  _309
REMARK  132  A    between atoms: _309  and  _310
REMARK  133  A    between atoms: _309  and  _312
REMARK  134  A    between atoms: _312  and  _313
REMARK  135  A    between atoms: _313  and  _436
REMARK  136  A    between atoms: _314  and  _316
REMARK  137  A    between atoms: _316  and  _317
REMARK  138  A    between atoms: _316  and  _319
REMARK  139  A    between atoms: _319  and  _320
REMARK  140  A    between atoms: _320  and  _321
REMARK  141  A    between atoms: _326  and  _328
REMARK  142  A    between atoms: _328  and  _329
REMARK  143  A    between atoms: _331  and  _333
REMARK  144  A    between atoms: _333  and  _334
REMARK  145  A    between atoms: _333  and  _336
REMARK  146  A    between atoms: _336  and  _337
REMARK  147  A    between atoms: _340  and  _342
REMARK  148  A    between atoms: _342  and  _343
REMARK  149  A    between atoms: _342  and  _345
REMARK  150  A    between atoms: _345  and  _346
REMARK  151  A    between atoms: _348  and  _350
REMARK  152  A    between atoms: _350  and  _351
REMARK  153  A    between atoms: _353  and  _355
REMARK  154  A    between atoms: _355  and  _356
REMARK  155  A    between atoms: _358  and  _360
REMARK  156  A    between atoms: _360  and  _361
REMARK  157  A    between atoms: _360  and  _363
REMARK  158  A    between atoms: _363  and  _364
REMARK  159  A    between atoms: _369  and  _371
REMARK  160  A    between atoms: _371  and  _372
REMARK  161  A    between atoms: _371  and  _374
REMARK  162  A    between atoms: _374  and  _375
REMARK  163  A    between atoms: _378  and  _380
REMARK  164  A    between atoms: _380  and  _381
REMARK  165  A    between atoms: _380  and  _383
REMARK  166  A    between atoms: _386  and  _388
REMARK  167  A    between atoms: _388  and  _389
REMARK  168  A    between atoms: _388  and  _391
REMARK  169  A    between atoms: _391  and  _392
REMARK  170  A    between atoms: _394  and  _396
REMARK  171  A    between atoms: _396  and  _397
REMARK  172  A    between atoms: _396  and  _399
REMARK  173  A    between atoms: _399  and  _400
REMARK  174  A    between atoms: _410  and  _412
REMARK  175  A    between atoms: _412  and  _413
REMARK  176  A    between atoms: _415  and  _417
REMARK  177  A    between atoms: _417  and  _418
REMARK  178  A    between atoms: _417  and  _420
REMARK  179  A    between atoms: _420  and  _421
REMARK  180  A    between atoms: _421  and  _422
REMARK  181  A    between atoms: _425  and  _427
REMARK  182  A    between atoms: _427  and  _428
REMARK  183  A    between atoms: _430  and  _432
REMARK  184  A    between atoms: _432  and  _433
REMARK  185  A    between atoms: _432  and  _435
REMARK  186  A    between atoms: _435  and  _436
REMARK  187  A    between atoms: _437  and  _439
REMARK  188  A    between atoms: _439  and  _440
REMARK  189  A    between atoms: _443  and  _445
REMARK  190  A    between atoms: _445  and  _446
REMARK  191  A    between atoms: _445  and  _448
REMARK  192  A    between atoms: _448  and  _449
REMARK  193  A    between atoms: _449  and  _450
REMARK  194  A    between atoms: _450  and  _451
REMARK  195  A    between atoms: _460  and  _462
REMARK  196  A    between atoms: _462  and  _463
REMARK  197  A    between atoms: _462  and  _465
REMARK  198  A    between atoms: _465  and  _466
REMARK  199  A    between atoms: _466  and  _467
REMARK  200  A    between atoms: _467  and  _468
REMARK  201  A    between atoms: _468  and  _469
REMARK  202  A    between atoms: _473  and  _475
REMARK  203  A    between atoms: _475  and  _476
REMARK  204  A    between atoms: _475  and  _478
REMARK  205  A    between atoms: _478  and  _479
REMARK  206  A    between atoms: _484  and  _485
REMARK  207  A    between atoms: _487  and  _489
REMARK  208  A    between atoms: _489  and  _490
REMARK  209  A    between atoms: _492  and  _494
REMARK  210  A    between atoms: _494  and  _495
REMARK  211  A    between atoms: _494  and  _497
REMARK  212  A    between atoms: _497  and  _498
REMARK  213  A    between atoms: _501  and  _503
REMARK  214  A    between atoms: _503  and  _504
REMARK  215  A    between atoms: _503  and  _506
REMARK  216  A    between atoms: _506  and  _507
REMARK  217  A    between atoms: _512  and  _513
REMARK  218  A    between atoms: _515  and  _517
REMARK  219  A    between atoms: _517  and  _518
REMARK  220  A    between atoms: _517  and  _520
REMARK  221  A    between atoms: _520  and  _521
REMARK                            x       y       z     vdW  Elec       q    Type
REMARK                         _______ _______ _______ _____ _____    ______ ____
ROOT
ATOM      1  O   HOH     1      -6.886   0.491  16.321  0.00  0.00    +0.000 OA
ENDROOT
TORSDOF 0
REMARK  Name = ../refined-set-2016/2xc4/2xc4_pocket.pdb
REMARK  221 active torsions:
REMARK  status: ('A' for Active; 'I' for Inactive)
REMARK    1  A    between atoms: _1  and  _5
REMARK    2  A    between atoms: _5  and  _6
REMARK    3  A    between atoms: _5  and  _8
REMARK    4  A    between atoms: _8  and  _9
REMARK    5  A    between atoms: _12  and  _14
REMARK    6  A    between atoms: _14  and  _15
REMARK    7  A    between atoms: _14  and  _17
REMARK    8  A    between atoms: _20  and  _22
REMARK    9  A    between atoms: _22  and  _23
REMARK   10  A    between atoms: _22  and  _25
REMARK   11  A    between atoms: _25  and  _26
REMARK   12  A    between atoms: _31  and  _33
REMARK   13  A    between atoms: _33  and  _34
REMARK   14  A    between atoms: _33  and  _36
REMARK   15  A    between atoms: _36  and  _37
REMARK   16  A    between atoms: _37  and  _38
REMARK   17  A    between atoms: _43  and  _45
REMARK   18  A    between atoms: _45  and  _46
REMARK   19  A    between atoms: _45  and  _48
REMARK   20  A    between atoms: _48  and  _49
REMARK   21  A    between atoms: _52  and  _54
REMARK   22  A    between atoms: _54  and  _55
REMARK   23  A    between atoms: _54  and  _57
REMARK   24  A    between atoms: _57  and  _58
REMARK   25  A    between atoms: _58  and  _59
REMARK   26  A    between atoms: _59  and  _60
REMARK   27  A    between atoms: _60  and  _61
REMARK   28  A    between atoms: _65  and  _67
REMARK   29  A    between atoms: _67  and  _68
REMARK   30  A    between atoms: _67  and  _70
REMARK   31  A    between atoms: _70  and  _71
REMARK   32  A    between atoms: _71  and  _72
REMARK   33  A    between atoms: _75  and  _77
REMARK   34  A    between atoms: _77  and  _78
REMARK   35  A    between atoms: _77  and  _80
REMARK   36  A    between atoms: _80  and  _81
REMARK   37  A    between atoms: _84  and  _86
REMARK   38  A    between atoms: _86  and  _87
REMARK   39  A    between atoms: _86  and  _89
REMARK   40  A    between atoms: _89  and  _90
REMARK   41  A    between atoms: _95  and  _96
REMARK   42  A    between atoms: _98  and  _100
REMARK   43  A    between atoms: _100  and  _101
REMARK   44  A    between atoms: _100  and  _103
REMARK   45  A    between atoms: _103  and  _104
REMARK   46  A    between atoms: _107  and  _109
REMARK   47  A    between atoms: _109  and  _110
REMARK   48  A    between atoms: _109  and  _112
REMARK   49  A    between atoms: _112  and  _113
REMARK   50  A    between atoms: _116  and  _118
REMARK   51  A    between atoms: _118  and  _119
REMARK   52  A    between atoms: _118  and  _121
REMARK   53  A    between atoms: _124  and  _126
REMARK   54  A    between atoms: _126  and  _127
REMARK   55  A    between atoms: _126  and  _129
REMARK   56  A    between atoms: _129  and  _130
REMARK   57  A    between atoms: _130  and  _131
REMARK   58  A    between atoms: _131  and  _132
REMARK   59  A    between atoms: _141  and  _143
REMARK   60  A    between atoms: _143  and  _144
REMARK   61  A    between atoms: _143  and  _146
REMARK   62  A    between atoms: _146  and  _147
REMARK   63  A    between atoms: _152  and  _154
REMARK   64  A    between atoms: _154  and  _155
REMARK   65  A    between atoms: _154  and  _157
REMARK   66  A    between atoms: _157  and  _158
REMARK   67  A    between atoms: _158  and  _159
REMARK   68  A    between atoms: _162  and  _164
REMARK   69  A    between atoms: _164  and  _165
REMARK   70  A    between atoms: _164  and  _167
REMARK   71  A    between atoms: _167  and  _168
REMARK   72  A    between atoms: _168  and  _169
REMARK   73  A    between atoms: _169  and  _170
REMARK   74  A    between atoms: _170  and  _171
REMARK   75  A    between atoms: _175  and  _177
REMARK   76  A    between atoms: _177  and  _178
REMARK   77  A    between atoms: _180  and  _182
REMARK   78  A    between atoms: _182  and  _183
REMARK   79  A    between atoms: _182  and  _185
REMARK   80  A    between atoms: _188  and  _190
REMARK   81  A    between atoms: _190  and  _191
REMARK   82  A    between atoms: _190  and  _193
REMARK   83  A    between atoms: _193  and  _194
REMARK   84  A    between atoms: _196  and  _198
REMARK   85  A    between atoms: _198  and  _199
REMARK   86  A    between atoms: _198  and  _201
REMARK   87  A    between atoms: _201  and  _202
REMARK   88  A    between atoms: _204  and  _206
REMARK   89  A    between atoms: _206  and  _207
REMARK   90  A    between atoms: _206  and  _209
REMARK   91  A    between atoms: _209  and  _210
REMARK   92  A    between atoms: _216  and  _218
REMARK   93  A    between atoms: _218  and  _219
REMARK   94  A    between atoms: _218  and  _221
REMARK   95  A    between atoms: _221  and  _222
REMARK   96  A    between atoms: _225  and  _227
REMARK   97  A    between atoms: _227  and  _228
REMARK   98  A    between atoms: _227  and  _230
REMARK   99  A    between atoms: _230  and  _231
REMARK  100  A    between atoms: _234  and  _236
REMARK  101  A    between atoms: _236  and  _237
REMARK  102  A    between atoms: _236  and  _239
REMARK  103  A    between atoms: _239  and  _240
REMARK  104  A    between atoms: _243  and  _245
REMARK  105  A    between atoms: _245  and  _246
REMARK  106  A    between atoms: _245  and  _248
REMARK  107  A    between atoms: _248  and  _249
REMARK  108  A    between atoms: _249  and  _250
REMARK  109  A    between atoms: _252  and  _254
REMARK  110  A    between atoms: _254  and  _255
REMARK  111  A    between atoms: _254  and  _257
REMARK  112  A    between atoms: _257  and  _258
REMARK  113  A    between atoms: _264  and  _266
REMARK  114  A    between atoms: _266  and  _267
REMARK  115  A    between atoms: _266  and  _269
REMARK  116  A    between atoms: _271  and  _273
REMARK  117  A    between atoms: _273  and  _274
REMARK  118  A    between atoms: _277  and  _279
REMARK  119  A    between atoms: _279  and  _280
REMARK  120  A    between atoms: _282  and  _284
REMARK  121  A    between atoms: _284  and  _285
REMARK  122  A    between atoms: _284  and  _287
REMARK  123  A    between atoms: _287  and  _288
REMARK  124  A    between atoms: _288  and  _289
REMARK  125  A    between atoms: _292  and  _294
REMARK  126  A    between atoms: _294  and  _295
REMARK  127  A    between atoms: _294  and  _297
REMARK  128  A    between atoms: _297  and  _298
REMARK  129  A    between atoms: _301  and  _303
REMARK  130  A    between atoms: _303  and  _304
REMARK  131  A    between atoms: _307  and  _309
REMARK  132  A    between atoms: _309  and  _310
REMARK  133  A    between atoms: _309  and  _312
REMARK  134  A    between atoms: _312  and  _313
REMARK  135  A    between atoms: _313  and  _436
REMARK  136  A    between atoms: _314  and  _316
REMARK  137  A    between atoms: _316  and  _317
REMARK  138  A    between atoms: _316  and  _319
REMARK  139  A    between atoms: _319  and  _320
REMARK  140  A    between atoms: _320  and  _321
REMARK  141  A    between atoms: _326  and  _328
REMARK  142  A    between atoms: _328  and  _329
REMARK  143  A    between atoms: _331  and  _333
REMARK  144  A    between atoms: _333  and  _334
REMARK  145  A    between atoms: _333  and  _336
REMARK  146  A    between atoms: _336  and  _337
REMARK  147  A    between atoms: _340  and  _342
REMARK  148  A    between atoms: _342  and  _343
REMARK  149  A    between atoms: _342  and  _345
REMARK  150  A    between atoms: _345  and  _346
REMARK  151  A    between atoms: _348  and  _350
REMARK  152  A    between atoms: _350  and  _351
REMARK  153  A    between atoms: _353  and  _355
REMARK  154  A    between atoms: _355  and  _356
REMARK  155  A    between atoms: _358  and  _360
REMARK  156  A    between atoms: _360  and  _361
REMARK  157  A    between atoms: _360  and  _363
REMARK  158  A    between atoms: _363  and  _364
REMARK  159  A    between atoms: _369  and  _371
REMARK  160  A    between atoms: _371  and  _372
REMARK  161  A    between atoms: _371  and  _374
REMARK  162  A    between atoms: _374  and  _375
REMARK  163  A    between atoms: _378  and  _380
REMARK  164  A    between atoms: _380  and  _381
REMARK  165  A    between atoms: _380  and  _383
REMARK  166  A    between atoms: _386  and  _388
REMARK  167  A    between atoms: _388  and  _389
REMARK  168  A    between atoms: _388  and  _391
REMARK  169  A    between atoms: _391  and  _392
REMARK  170  A    between atoms: _394  and  _396
REMARK  171  A    between atoms: _396  and  _397
REMARK  172  A    between atoms: _396  and  _399
REMARK  173  A    between atoms: _399  and  _400
REMARK  174  A    between atoms: _410  and  _412
REMARK  175  A    between atoms: _412  and  _413
REMARK  176  A    between atoms: _415  and  _417
REMARK  177  A    between atoms: _417  and  _418
REMARK  178  A    between atoms: _417  and  _420
REMARK  179  A    between atoms: _420  and  _421
REMARK  180  A    between atoms: _421  and  _422
REMARK  181  A    between atoms: _425  and  _427
REMARK  182  A    between atoms: _427  and  _428
REMARK  183  A    between atoms: _430  and  _432
REMARK  184  A    between atoms: _432  and  _433
REMARK  185  A    between atoms: _432  and  _435
REMARK  186  A    between atoms: _435  and  _436
REMARK  187  A    between atoms: _437  and  _439
REMARK  188  A    between atoms: _439  and  _440
REMARK  189  A    between atoms: _443  and  _445
REMARK  190  A    between atoms: _445  and  _446
REMARK  191  A    between atoms: _445  and  _448
REMARK  192  A    between atoms: _448  and  _449
REMARK  193  A    between atoms: _449  and  _450
REMARK  194  A    between atoms: _450  and  _451
REMARK  195  A    between atoms: _460  and  _462
REMARK  196  A    between atoms: _462  and  _463
REMARK  197  A    between atoms: _462  and  _465
REMARK  198  A    between atoms: _465  and  _466
REMARK  199  A    between atoms: _466  and  _467
REMARK  200  A    between atoms: _467  and  _468
REMARK  201  A    between atoms: _468  and  _469
REMARK  202  A    between atoms: _473  and  _475
REMARK  203  A    between atoms: _475  and  _476
REMARK  204  A    between atoms: _475  and  _478
REMARK  205  A    between atoms: _478  and  _479
REMARK  206  A    between atoms: _484  and  _485
REMARK  207  A    between atoms: _487  and  _489
REMARK  208  A    between atoms: _489  and  _490
REMARK  209  A    between atoms: _492  and  _494
REMARK  210  A    between atoms: _494  and  _495
REMARK  211  A    between atoms: _494  and  _497
REMARK  212  A    between atoms: _497  and  _498
REMARK  213  A    between atoms: _501  and  _503
REMARK  214  A    between atoms: _503  and  _504
REMARK  215  A    between atoms: _503  and  _506
REMARK  216  A    between atoms: _506  and  _507
REMARK  217  A    between atoms: _512  and  _513
REMARK  218  A    between atoms: _515  and  _517
REMARK  219  A    between atoms: _517  and  _518
REMARK  220  A    between atoms: _517  and  _520
REMARK  221  A    between atoms: _520  and  _521
REMARK                            x       y       z     vdW  Elec       q    Type
REMARK                         _______ _______ _______ _____ _____    ______ ____
ROOT
ATOM      1  O   HOH     1     -10.382   1.814  15.849  0.00  0.00    +0.000 OA
ENDROOT
TORSDOF 0
REMARK  Name = ../refined-set-2016/2xc4/2xc4_pocket.pdb
REMARK  221 active torsions:
REMARK  status: ('A' for Active; 'I' for Inactive)
REMARK    1  A    between atoms: _1  and  _5
REMARK    2  A    between atoms: _5  and  _6
REMARK    3  A    between atoms: _5  and  _8
REMARK    4  A    between atoms: _8  and  _9
REMARK    5  A    between atoms: _12  and  _14
REMARK    6  A    between atoms: _14  and  _15
REMARK    7  A    between atoms: _14  and  _17
REMARK    8  A    between atoms: _20  and  _22
REMARK    9  A    between atoms: _22  and  _23
REMARK   10  A    between atoms: _22  and  _25
REMARK   11  A    between atoms: _25  and  _26
REMARK   12  A    between atoms: _31  and  _33
REMARK   13  A    between atoms: _33  and  _34
REMARK   14  A    between atoms: _33  and  _36
REMARK   15  A    between atoms: _36  and  _37
REMARK   16  A    between atoms: _37  and  _38
REMARK   17  A    between atoms: _43  and  _45
REMARK   18  A    between atoms: _45  and  _46
REMARK   19  A    between atoms: _45  and  _48
REMARK   20  A    between atoms: _48  and  _49
REMARK   21  A    between atoms: _52  and  _54
REMARK   22  A    between atoms: _54  and  _55
REMARK   23  A    between atoms: _54  and  _57
REMARK   24  A    between atoms: _57  and  _58
REMARK   25  A    between atoms: _58  and  _59
REMARK   26  A    between atoms: _59  and  _60
REMARK   27  A    between atoms: _60  and  _61
REMARK   28  A    between atoms: _65  and  _67
REMARK   29  A    between atoms: _67  and  _68
REMARK   30  A    between atoms: _67  and  _70
REMARK   31  A    between atoms: _70  and  _71
REMARK   32  A    between atoms: _71  and  _72
REMARK   33  A    between atoms: _75  and  _77
REMARK   34  A    between atoms: _77  and  _78
REMARK   35  A    between atoms: _77  and  _80
REMARK   36  A    between atoms: _80  and  _81
REMARK   37  A    between atoms: _84  and  _86
REMARK   38  A    between atoms: _86  and  _87
REMARK   39  A    between atoms: _86  and  _89
REMARK   40  A    between atoms: _89  and  _90
REMARK   41  A    between atoms: _95  and  _96
REMARK   42  A    between atoms: _98  and  _100
REMARK   43  A    between atoms: _100  and  _101
REMARK   44  A    between atoms: _100  and  _103
REMARK   45  A    between atoms: _103  and  _104
REMARK   46  A    between atoms: _107  and  _109
REMARK   47  A    between atoms: _109  and  _110
REMARK   48  A    between atoms: _109  and  _112
REMARK   49  A    between atoms: _112  and  _113
REMARK   50  A    between atoms: _116  and  _118
REMARK   51  A    between atoms: _118  and  _119
REMARK   52  A    between atoms: _118  and  _121
REMARK   53  A    between atoms: _124  and  _126
REMARK   54  A    between atoms: _126  and  _127
REMARK   55  A    between atoms: _126  and  _129
REMARK   56  A    between atoms: _129  and  _130
REMARK   57  A    between atoms: _130  and  _131
REMARK   58  A    between atoms: _131  and  _132
REMARK   59  A    between atoms: _141  and  _143
REMARK   60  A    between atoms: _143  and  _144
REMARK   61  A    between atoms: _143  and  _146
REMARK   62  A    between atoms: _146  and  _147
REMARK   63  A    between atoms: _152  and  _154
REMARK   64  A    between atoms: _154  and  _155
REMARK   65  A    between atoms: _154  and  _157
REMARK   66  A    between atoms: _157  and  _158
REMARK   67  A    between atoms: _158  and  _159
REMARK   68  A    between atoms: _162  and  _164
REMARK   69  A    between atoms: _164  and  _165
REMARK   70  A    between atoms: _164  and  _167
REMARK   71  A    between atoms: _167  and  _168
REMARK   72  A    between atoms: _168  and  _169
REMARK   73  A    between atoms: _169  and  _170
REMARK   74  A    between atoms: _170  and  _171
REMARK   75  A    between atoms: _175  and  _177
REMARK   76  A    between atoms: _177  and  _178
REMARK   77  A    between atoms: _180  and  _182
REMARK   78  A    between atoms: _182  and  _183
REMARK   79  A    between atoms: _182  and  _185
REMARK   80  A    between atoms: _188  and  _190
REMARK   81  A    between atoms: _190  and  _191
REMARK   82  A    between atoms: _190  and  _193
REMARK   83  A    between atoms: _193  and  _194
REMARK   84  A    between atoms: _196  and  _198
REMARK   85  A    between atoms: _198  and  _199
REMARK   86  A    between atoms: _198  and  _201
REMARK   87  A    between atoms: _201  and  _202
REMARK   88  A    between atoms: _204  and  _206
REMARK   89  A    between atoms: _206  and  _207
REMARK   90  A    between atoms: _206  and  _209
REMARK   91  A    between atoms: _209  and  _210
REMARK   92  A    between atoms: _216  and  _218
REMARK   93  A    between atoms: _218  and  _219
REMARK   94  A    between atoms: _218  and  _221
REMARK   95  A    between atoms: _221  and  _222
REMARK   96  A    between atoms: _225  and  _227
REMARK   97  A    between atoms: _227  and  _228
REMARK   98  A    between atoms: _227  and  _230
REMARK   99  A    between atoms: _230  and  _231
REMARK  100  A    between atoms: _234  and  _236
REMARK  101  A    between atoms: _236  and  _237
REMARK  102  A    between atoms: _236  and  _239
REMARK  103  A    between atoms: _239  and  _240
REMARK  104  A    between atoms: _243  and  _245
REMARK  105  A    between atoms: _245  and  _246
REMARK  106  A    between atoms: _245  and  _248
REMARK  107  A    between atoms: _248  and  _249
REMARK  108  A    between atoms: _249  and  _250
REMARK  109  A    between atoms: _252  and  _254
REMARK  110  A    between atoms: _254  and  _255
REMARK  111  A    between atoms: _254  and  _257
REMARK  112  A    between atoms: _257  and  _258
REMARK  113  A    between atoms: _264  and  _266
REMARK  114  A    between atoms: _266  and  _267
REMARK  115  A    between atoms: _266  and  _269
REMARK  116  A    between atoms: _271  and  _273
REMARK  117  A    between atoms: _273  and  _274
REMARK  118  A    between atoms: _277  and  _279
REMARK  119  A    between atoms: _279  and  _280
REMARK  120  A    between atoms: _282  and  _284
REMARK  121  A    between atoms: _284  and  _285
REMARK  122  A    between atoms: _284  and  _287
REMARK  123  A    between atoms: _287  and  _288
REMARK  124  A    between atoms: _288  and  _289
REMARK  125  A    between atoms: _292  and  _294
REMARK  126  A    between atoms: _294  and  _295
REMARK  127  A    between atoms: _294  and  _297
REMARK  128  A    between atoms: _297  and  _298
REMARK  129  A    between atoms: _301  and  _303
REMARK  130  A    between atoms: _303  and  _304
REMARK  131  A    between atoms: _307  and  _309
REMARK  132  A    between atoms: _309  and  _310
REMARK  133  A    between atoms: _309  and  _312
REMARK  134  A    between atoms: _312  and  _313
REMARK  135  A    between atoms: _313  and  _436
REMARK  136  A    between atoms: _314  and  _316
REMARK  137  A    between atoms: _316  and  _317
REMARK  138  A    between atoms: _316  and  _319
REMARK  139  A    between atoms: _319  and  _320
REMARK  140  A    between atoms: _320  and  _321
REMARK  141  A    between atoms: _326  and  _328
REMARK  142  A    between atoms: _328  and  _329
REMARK  143  A    between atoms: _331  and  _333
REMARK  144  A    between atoms: _333  and  _334
REMARK  145  A    between atoms: _333  and  _336
REMARK  146  A    between atoms: _336  and  _337
REMARK  147  A    between atoms: _340  and  _342
REMARK  148  A    between atoms: _342  and  _343
REMARK  149  A    between atoms: _342  and  _345
REMARK  150  A    between atoms: _345  and  _346
REMARK  151  A    between atoms: _348  and  _350
REMARK  152  A    between atoms: _350  and  _351
REMARK  153  A    between atoms: _353  and  _355
REMARK  154  A    between atoms: _355  and  _356
REMARK  155  A    between atoms: _358  and  _360
REMARK  156  A    between atoms: _360  and  _361
REMARK  157  A    between atoms: _360  and  _363
REMARK  158  A    between atoms: _363  and  _364
REMARK  159  A    between atoms: _369  and  _371
REMARK  160  A    between atoms: _371  and  _372
REMARK  161  A    between atoms: _371  and  _374
REMARK  162  A    between atoms: _374  and  _375
REMARK  163  A    between atoms: _378  and  _380
REMARK  164  A    between atoms: _380  and  _381
REMARK  165  A    between atoms: _380  and  _383
REMARK  166  A    between atoms: _386  and  _388
REMARK  167  A    between atoms: _388  and  _389
REMARK  168  A    between atoms: _388  and  _391
REMARK  169  A    between atoms: _391  and  _392
REMARK  170  A    between atoms: _394  and  _396
REMARK  171  A    between atoms: _396  and  _397
REMARK  172  A    between atoms: _396  and  _399
REMARK  173  A    between atoms: _399  and  _400
REMARK  174  A    between atoms: _410  and  _412
REMARK  175  A    between atoms: _412  and  _413
REMARK  176  A    between atoms: _415  and  _417
REMARK  177  A    between atoms: _417  and  _418
REMARK  178  A    between atoms: _417  and  _420
REMARK  179  A    between atoms: _420  and  _421
REMARK  180  A    between atoms: _421  and  _422
REMARK  181  A    between atoms: _425  and  _427
REMARK  182  A    between atoms: _427  and  _428
REMARK  183  A    between atoms: _430  and  _432
REMARK  184  A    between atoms: _432  and  _433
REMARK  185  A    between atoms: _432  and  _435
REMARK  186  A    between atoms: _435  and  _436
REMARK  187  A    between atoms: _437  and  _439
REMARK  188  A    between atoms: _439  and  _440
REMARK  189  A    between atoms: _443  and  _445
REMARK  190  A    between atoms: _445  and  _446
REMARK  191  A    between atoms: _445  and  _448
REMARK  192  A    between atoms: _448  and  _449
REMARK  193  A    between atoms: _449  and  _450
REMARK  194  A    between atoms: _450  and  _451
REMARK  195  A    between atoms: _460  and  _462
REMARK  196  A    between atoms: _462  and  _463
REMARK  197  A    between atoms: _462  and  _465
REMARK  198  A    between atoms: _465  and  _466
REMARK  199  A    between atoms: _466  and  _467
REMARK  200  A    between atoms: _467  and  _468
REMARK  201  A    between atoms: _468  and  _469
REMARK  202  A    between atoms: _473  and  _475
REMARK  203  A    between atoms: _475  and  _476
REMARK  204  A    between atoms: _475  and  _478
REMARK  205  A    between atoms: _478  and  _479
REMARK  206  A    between atoms: _484  and  _485
REMARK  207  A    between atoms: _487  and  _489
REMARK  208  A    between atoms: _489  and  _490
REMARK  209  A    between atoms: _492  and  _494
REMARK  210  A    between atoms: _494  and  _495
REMARK  211  A    between atoms: _494  and  _497
REMARK  212  A    between atoms: _497  and  _498
REMARK  213  A    between atoms: _501  and  _503
REMARK  214  A    between atoms: _503  and  _504
REMARK  215  A    between atoms: _503  and  _506
REMARK  216  A    between atoms: _506  and  _507
REMARK  217  A    between atoms: _512  and  _513
REMARK  218  A    between atoms: _515  and  _517
REMARK  219  A    between atoms: _517  and  _518
REMARK  220  A    between atoms: _517  and  _520
REMARK  221  A    between atoms: _520  and  _521
REMARK                            x       y       z     vdW  Elec       q    Type
REMARK                         _______ _______ _______ _____ _____    ______ ____
ROOT
ATOM      1  O   HOH     1      -4.465   4.902  34.055  0.00  0.00    +0.000 OA
ENDROOT
TORSDOF 0
REMARK  Name = ../refined-set-2016/2xc4/2xc4_pocket.pdb
REMARK  221 active torsions:
REMARK  status: ('A' for Active; 'I' for Inactive)
REMARK    1  A    between atoms: _1  and  _5
REMARK    2  A    between atoms: _5  and  _6
REMARK    3  A    between atoms: _5  and  _8
REMARK    4  A    between atoms: _8  and  _9
REMARK    5  A    between atoms: _12  and  _14
REMARK    6  A    between atoms: _14  and  _15
REMARK    7  A    between atoms: _14  and  _17
REMARK    8  A    between atoms: _20  and  _22
REMARK    9  A    between atoms: _22  and  _23
REMARK   10  A    between atoms: _22  and  _25
REMARK   11  A    between atoms: _25  and  _26
REMARK   12  A    between atoms: _31  and  _33
REMARK   13  A    between atoms: _33  and  _34
REMARK   14  A    between atoms: _33  and  _36
REMARK   15  A    between atoms: _36  and  _37
REMARK   16  A    between atoms: _37  and  _38
REMARK   17  A    between atoms: _43  and  _45
REMARK   18  A    between atoms: _45  and  _46
REMARK   19  A    between atoms: _45  and  _48
REMARK   20  A    between atoms: _48  and  _49
REMARK   21  A    between atoms: _52  and  _54
REMARK   22  A    between atoms: _54  and  _55
REMARK   23  A    between atoms: _54  and  _57
REMARK   24  A    between atoms: _57  and  _58
REMARK   25  A    between atoms: _58  and  _59
REMARK   26  A    between atoms: _59  and  _60
REMARK   27  A    between atoms: _60  and  _61
REMARK   28  A    between atoms: _65  and  _67
REMARK   29  A    between atoms: _67  and  _68
REMARK   30  A    between atoms: _67  and  _70
REMARK   31  A    between atoms: _70  and  _71
REMARK   32  A    between atoms: _71  and  _72
REMARK   33  A    between atoms: _75  and  _77
REMARK   34  A    between atoms: _77  and  _78
REMARK   35  A    between atoms: _77  and  _80
REMARK   36  A    between atoms: _80  and  _81
REMARK   37  A    between atoms: _84  and  _86
REMARK   38  A    between atoms: _86  and  _87
REMARK   39  A    between atoms: _86  and  _89
REMARK   40  A    between atoms: _89  and  _90
REMARK   41  A    between atoms: _95  and  _96
REMARK   42  A    between atoms: _98  and  _100
REMARK   43  A    between atoms: _100  and  _101
REMARK   44  A    between atoms: _100  and  _103
REMARK   45  A    between atoms: _103  and  _104
REMARK   46  A    between atoms: _107  and  _109
REMARK   47  A    between atoms: _109  and  _110
REMARK   48  A    between atoms: _109  and  _112
REMARK   49  A    between atoms: _112  and  _113
REMARK   50  A    between atoms: _116  and  _118
REMARK   51  A    between atoms: _118  and  _119
REMARK   52  A    between atoms: _118  and  _121
REMARK   53  A    between atoms: _124  and  _126
REMARK   54  A    between atoms: _126  and  _127
REMARK   55  A    between atoms: _126  and  _129
REMARK   56  A    between atoms: _129  and  _130
REMARK   57  A    between atoms: _130  and  _131
REMARK   58  A    between atoms: _131  and  _132
REMARK   59  A    between atoms: _141  and  _143
REMARK   60  A    between atoms: _143  and  _144
REMARK   61  A    between atoms: _143  and  _146
REMARK   62  A    between atoms: _146  and  _147
REMARK   63  A    between atoms: _152  and  _154
REMARK   64  A    between atoms: _154  and  _155
REMARK   65  A    between atoms: _154  and  _157
REMARK   66  A    between atoms: _157  and  _158
REMARK   67  A    between atoms: _158  and  _159
REMARK   68  A    between atoms: _162  and  _164
REMARK   69  A    between atoms: _164  and  _165
REMARK   70  A    between atoms: _164  and  _167
REMARK   71  A    between atoms: _167  and  _168
REMARK   72  A    between atoms: _168  and  _169
REMARK   73  A    between atoms: _169  and  _170
REMARK   74  A    between atoms: _170  and  _171
REMARK   75  A    between atoms: _175  and  _177
REMARK   76  A    between atoms: _177  and  _178
REMARK   77  A    between atoms: _180  and  _182
REMARK   78  A    between atoms: _182  and  _183
REMARK   79  A    between atoms: _182  and  _185
REMARK   80  A    between atoms: _188  and  _190
REMARK   81  A    between atoms: _190  and  _191
REMARK   82  A    between atoms: _190  and  _193
REMARK   83  A    between atoms: _193  and  _194
REMARK   84  A    between atoms: _196  and  _198
REMARK   85  A    between atoms: _198  and  _199
REMARK   86  A    between atoms: _198  and  _201
REMARK   87  A    between atoms: _201  and  _202
REMARK   88  A    between atoms: _204  and  _206
REMARK   89  A    between atoms: _206  and  _207
REMARK   90  A    between atoms: _206  and  _209
REMARK   91  A    between atoms: _209  and  _210
REMARK   92  A    between atoms: _216  and  _218
REMARK   93  A    between atoms: _218  and  _219
REMARK   94  A    between atoms: _218  and  _221
REMARK   95  A    between atoms: _221  and  _222
REMARK   96  A    between atoms: _225  and  _227
REMARK   97  A    between atoms: _227  and  _228
REMARK   98  A    between atoms: _227  and  _230
REMARK   99  A    between atoms: _230  and  _231
REMARK  100  A    between atoms: _234  and  _236
REMARK  101  A    between atoms: _236  and  _237
REMARK  102  A    between atoms: _236  and  _239
REMARK  103  A    between atoms: _239  and  _240
REMARK  104  A    between atoms: _243  and  _245
REMARK  105  A    between atoms: _245  and  _246
REMARK  106  A    between atoms: _245  and  _248
REMARK  107  A    between atoms: _248  and  _249
REMARK  108  A    between atoms: _249  and  _250
REMARK  109  A    between atoms: _252  and  _254
REMARK  110  A    between atoms: _254  and  _255
REMARK  111  A    between atoms: _254  and  _257
REMARK  112  A    between atoms: _257  and  _258
REMARK  113  A    between atoms: _264  and  _266
REMARK  114  A    between atoms: _266  and  _267
REMARK  115  A    between atoms: _266  and  _269
REMARK  116  A    between atoms: _271  and  _273
REMARK  117  A    between atoms: _273  and  _274
REMARK  118  A    between atoms: _277  and  _279
REMARK  119  A    between atoms: _279  and  _280
REMARK  120  A    between atoms: _282  and  _284
REMARK  121  A    between atoms: _284  and  _285
REMARK  122  A    between atoms: _284  and  _287
REMARK  123  A    between atoms: _287  and  _288
REMARK  124  A    between atoms: _288  and  _289
REMARK  125  A    between atoms: _292  and  _294
REMARK  126  A    between atoms: _294  and  _295
REMARK  127  A    between atoms: _294  and  _297
REMARK  128  A    between atoms: _297  and  _298
REMARK  129  A    between atoms: _301  and  _303
REMARK  130  A    between atoms: _303  and  _304
REMARK  131  A    between atoms: _307  and  _309
REMARK  132  A    between atoms: _309  and  _310
REMARK  133  A    between atoms: _309  and  _312
REMARK  134  A    between atoms: _312  and  _313
REMARK  135  A    between atoms: _313  and  _436
REMARK  136  A    between atoms: _314  and  _316
REMARK  137  A    between atoms: _316  and  _317
REMARK  138  A    between atoms: _316  and  _319
REMARK  139  A    between atoms: _319  and  _320
REMARK  140  A    between atoms: _320  and  _321
REMARK  141  A    between atoms: _326  and  _328
REMARK  142  A    between atoms: _328  and  _329
REMARK  143  A    between atoms: _331  and  _333
REMARK  144  A    between atoms: _333  and  _334
REMARK  145  A    between atoms: _333  and  _336
REMARK  146  A    between atoms: _336  and  _337
REMARK  147  A    between atoms: _340  and  _342
REMARK  148  A    between atoms: _342  and  _343
REMARK  149  A    between atoms: _342  and  _345
REMARK  150  A    between atoms: _345  and  _346
REMARK  151  A    between atoms: _348  and  _350
REMARK  152  A    between atoms: _350  and  _351
REMARK  153  A    between atoms: _353  and  _355
REMARK  154  A    between atoms: _355  and  _356
REMARK  155  A    between atoms: _358  and  _360
REMARK  156  A    between atoms: _360  and  _361
REMARK  157  A    between atoms: _360  and  _363
REMARK  158  A    between atoms: _363  and  _364
REMARK  159  A    between atoms: _369  and  _371
REMARK  160  A    between atoms: _371  and  _372
REMARK  161  A    between atoms: _371  and  _374
REMARK  162  A    between atoms: _374  and  _375
REMARK  163  A    between atoms: _378  and  _380
REMARK  164  A    between atoms: _380  and  _381
REMARK  165  A    between atoms: _380  and  _383
REMARK  166  A    between atoms: _386  and  _388
REMARK  167  A    between atoms: _388  and  _389
REMARK  168  A    between atoms: _388  and  _391
REMARK  169  A    between atoms: _391  and  _392
REMARK  170  A    between atoms: _394  and  _396
REMARK  171  A    between atoms: _396  and  _397
REMARK  172  A    between atoms: _396  and  _399
REMARK  173  A    between atoms: _399  and  _400
REMARK  174  A    between atoms: _410  and  _412
REMARK  175  A    between atoms: _412  and  _413
REMARK  176  A    between atoms: _415  and  _417
REMARK  177  A    between atoms: _417  and  _418
REMARK  178  A    between atoms: _417  and  _420
REMARK  179  A    between atoms: _420  and  _421
REMARK  180  A    between atoms: _421  and  _422
REMARK  181  A    between atoms: _425  and  _427
REMARK  182  A    between atoms: _427  and  _428
REMARK  183  A    between atoms: _430  and  _432
REMARK  184  A    between atoms: _432  and  _433
REMARK  185  A    between atoms: _432  and  _435
REMARK  186  A    between atoms: _435  and  _436
REMARK  187  A    between atoms: _437  and  _439
REMARK  188  A    between atoms: _439  and  _440
REMARK  189  A    between atoms: _443  and  _445
REMARK  190  A    between atoms: _445  and  _446
REMARK  191  A    between atoms: _445  and  _448
REMARK  192  A    between atoms: _448  and  _449
REMARK  193  A    between atoms: _449  and  _450
REMARK  194  A    between atoms: _450  and  _451
REMARK  195  A    between atoms: _460  and  _462
REMARK  196  A    between atoms: _462  and  _463
REMARK  197  A    between atoms: _462  and  _465
REMARK  198  A    between atoms: _465  and  _466
REMARK  199  A    between atoms: _466  and  _467
REMARK  200  A    between atoms: _467  and  _468
REMARK  201  A    between atoms: _468  and  _469
REMARK  202  A    between atoms: _473  and  _475
REMARK  203  A    between atoms: _475  and  _476
REMARK  204  A    between atoms: _475  and  _478
REMARK  205  A    between atoms: _478  and  _479
REMARK  206  A    between atoms: _484  and  _485
REMARK  207  A    between atoms: _487  and  _489
REMARK  208  A    between atoms: _489  and  _490
REMARK  209  A    between atoms: _492  and  _494
REMARK  210  A    between atoms: _494  and  _495
REMARK  211  A    between atoms: _494  and  _497
REMARK  212  A    between atoms: _497  and  _498
REMARK  213  A    between atoms: _501  and  _503
REMARK  214  A    between atoms: _503  and  _504
REMARK  215  A    between atoms: _503  and  _506
REMARK  216  A    between atoms: _506  and  _507
REMARK  217  A    between atoms: _512  and  _513
REMARK  218  A    between atoms: _515  and  _517
REMARK  219  A    between atoms: _517  and  _518
REMARK  220  A    between atoms: _517  and  _520
REMARK  221  A    between atoms: _520  and  _521
REMARK                            x       y       z     vdW  Elec       q    Type
REMARK                         _______ _______ _______ _____ _____    ______ ____
ROOT
ATOM      1  O   HOH     1      -1.151   4.153  31.997  0.00  0.00    +0.000 OA
ENDROOT
TORSDOF 0
REMARK  Name = ../refined-set-2016/2xc4/2xc4_pocket.pdb
REMARK  221 active torsions:
REMARK  status: ('A' for Active; 'I' for Inactive)
REMARK    1  A    between atoms: _1  and  _5
REMARK    2  A    between atoms: _5  and  _6
REMARK    3  A    between atoms: _5  and  _8
REMARK    4  A    between atoms: _8  and  _9
REMARK    5  A    between atoms: _12  and  _14
REMARK    6  A    between atoms: _14  and  _15
REMARK    7  A    between atoms: _14  and  _17
REMARK    8  A    between atoms: _20  and  _22
REMARK    9  A    between atoms: _22  and  _23
REMARK   10  A    between atoms: _22  and  _25
REMARK   11  A    between atoms: _25  and  _26
REMARK   12  A    between atoms: _31  and  _33
REMARK   13  A    between atoms: _33  and  _34
REMARK   14  A    between atoms: _33  and  _36
REMARK   15  A    between atoms: _36  and  _37
REMARK   16  A    between atoms: _37  and  _38
REMARK   17  A    between atoms: _43  and  _45
REMARK   18  A    between atoms: _45  and  _46
REMARK   19  A    between atoms: _45  and  _48
REMARK   20  A    between atoms: _48  and  _49
REMARK   21  A    between atoms: _52  and  _54
REMARK   22  A    between atoms: _54  and  _55
REMARK   23  A    between atoms: _54  and  _57
REMARK   24  A    between atoms: _57  and  _58
REMARK   25  A    between atoms: _58  and  _59
REMARK   26  A    between atoms: _59  and  _60
REMARK   27  A    between atoms: _60  and  _61
REMARK   28  A    between atoms: _65  and  _67
REMARK   29  A    between atoms: _67  and  _68
REMARK   30  A    between atoms: _67  and  _70
REMARK   31  A    between atoms: _70  and  _71
REMARK   32  A    between atoms: _71  and  _72
REMARK   33  A    between atoms: _75  and  _77
REMARK   34  A    between atoms: _77  and  _78
REMARK   35  A    between atoms: _77  and  _80
REMARK   36  A    between atoms: _80  and  _81
REMARK   37  A    between atoms: _84  and  _86
REMARK   38  A    between atoms: _86  and  _87
REMARK   39  A    between atoms: _86  and  _89
REMARK   40  A    between atoms: _89  and  _90
REMARK   41  A    between atoms: _95  and  _96
REMARK   42  A    between atoms: _98  and  _100
REMARK   43  A    between atoms: _100  and  _101
REMARK   44  A    between atoms: _100  and  _103
REMARK   45  A    between atoms: _103  and  _104
REMARK   46  A    between atoms: _107  and  _109
REMARK   47  A    between atoms: _109  and  _110
REMARK   48  A    between atoms: _109  and  _112
REMARK   49  A    between atoms: _112  and  _113
REMARK   50  A    between atoms: _116  and  _118
REMARK   51  A    between atoms: _118  and  _119
REMARK   52  A    between atoms: _118  and  _121
REMARK   53  A    between atoms: _124  and  _126
REMARK   54  A    between atoms: _126  and  _127
REMARK   55  A    between atoms: _126  and  _129
REMARK   56  A    between atoms: _129  and  _130
REMARK   57  A    between atoms: _130  and  _131
REMARK   58  A    between atoms: _131  and  _132
REMARK   59  A    between atoms: _141  and  _143
REMARK   60  A    between atoms: _143  and  _144
REMARK   61  A    between atoms: _143  and  _146
REMARK   62  A    between atoms: _146  and  _147
REMARK   63  A    between atoms: _152  and  _154
REMARK   64  A    between atoms: _154  and  _155
REMARK   65  A    between atoms: _154  and  _157
REMARK   66  A    between atoms: _157  and  _158
REMARK   67  A    between atoms: _158  and  _159
REMARK   68  A    between atoms: _162  and  _164
REMARK   69  A    between atoms: _164  and  _165
REMARK   70  A    between atoms: _164  and  _167
REMARK   71  A    between atoms: _167  and  _168
REMARK   72  A    between atoms: _168  and  _169
REMARK   73  A    between atoms: _169  and  _170
REMARK   74  A    between atoms: _170  and  _171
REMARK   75  A    between atoms: _175  and  _177
REMARK   76  A    between atoms: _177  and  _178
REMARK   77  A    between atoms: _180  and  _182
REMARK   78  A    between atoms: _182  and  _183
REMARK   79  A    between atoms: _182  and  _185
REMARK   80  A    between atoms: _188  and  _190
REMARK   81  A    between atoms: _190  and  _191
REMARK   82  A    between atoms: _190  and  _193
REMARK   83  A    between atoms: _193  and  _194
REMARK   84  A    between atoms: _196  and  _198
REMARK   85  A    between atoms: _198  and  _199
REMARK   86  A    between atoms: _198  and  _201
REMARK   87  A    between atoms: _201  and  _202
REMARK   88  A    between atoms: _204  and  _206
REMARK   89  A    between atoms: _206  and  _207
REMARK   90  A    between atoms: _206  and  _209
REMARK   91  A    between atoms: _209  and  _210
REMARK   92  A    between atoms: _216  and  _218
REMARK   93  A    between atoms: _218  and  _219
REMARK   94  A    between atoms: _218  and  _221
REMARK   95  A    between atoms: _221  and  _222
REMARK   96  A    between atoms: _225  and  _227
REMARK   97  A    between atoms: _227  and  _228
REMARK   98  A    between atoms: _227  and  _230
REMARK   99  A    between atoms: _230  and  _231
REMARK  100  A    between atoms: _234  and  _236
REMARK  101  A    between atoms: _236  and  _237
REMARK  102  A    between atoms: _236  and  _239
REMARK  103  A    between atoms: _239  and  _240
REMARK  104  A    between atoms: _243  and  _245
REMARK  105  A    between atoms: _245  and  _246
REMARK  106  A    between atoms: _245  and  _248
REMARK  107  A    between atoms: _248  and  _249
REMARK  108  A    between atoms: _249  and  _250
REMARK  109  A    between atoms: _252  and  _254
REMARK  110  A    between atoms: _254  and  _255
REMARK  111  A    between atoms: _254  and  _257
REMARK  112  A    between atoms: _257  and  _258
REMARK  113  A    between atoms: _264  and  _266
REMARK  114  A    between atoms: _266  and  _267
REMARK  115  A    between atoms: _266  and  _269
REMARK  116  A    between atoms: _271  and  _273
REMARK  117  A    between atoms: _273  and  _274
REMARK  118  A    between atoms: _277  and  _279
REMARK  119  A    between atoms: _279  and  _280
REMARK  120  A    between atoms: _282  and  _284
REMARK  121  A    between atoms: _284  and  _285
REMARK  122  A    between atoms: _284  and  _287
REMARK  123  A    between atoms: _287  and  _288
REMARK  124  A    between atoms: _288  and  _289
REMARK  125  A    between atoms: _292  and  _294
REMARK  126  A    between atoms: _294  and  _295
REMARK  127  A    between atoms: _294  and  _297
REMARK  128  A    between atoms: _297  and  _298
REMARK  129  A    between atoms: _301  and  _303
REMARK  130  A    between atoms: _303  and  _304
REMARK  131  A    between atoms: _307  and  _309
REMARK  132  A    between atoms: _309  and  _310
REMARK  133  A    between atoms: _309  and  _312
REMARK  134  A    between atoms: _312  and  _313
REMARK  135  A    between atoms: _313  and  _436
REMARK  136  A    between atoms: _314  and  _316
REMARK  137  A    between atoms: _316  and  _317
REMARK  138  A    between atoms: _316  and  _319
REMARK  139  A    between atoms: _319  and  _320
REMARK  140  A    between atoms: _320  and  _321
REMARK  141  A    between atoms: _326  and  _328
REMARK  142  A    between atoms: _328  and  _329
REMARK  143  A    between atoms: _331  and  _333
REMARK  144  A    between atoms: _333  and  _334
REMARK  145  A    between atoms: _333  and  _336
REMARK  146  A    between atoms: _336  and  _337
REMARK  147  A    between atoms: _340  and  _342
REMARK  148  A    between atoms: _342  and  _343
REMARK  149  A    between atoms: _342  and  _345
REMARK  150  A    between atoms: _345  and  _346
REMARK  151  A    between atoms: _348  and  _350
REMARK  152  A    between atoms: _350  and  _351
REMARK  153  A    between atoms: _353  and  _355
REMARK  154  A    between atoms: _355  and  _356
REMARK  155  A    between atoms: _358  and  _360
REMARK  156  A    between atoms: _360  and  _361
REMARK  157  A    between atoms: _360  and  _363
REMARK  158  A    between atoms: _363  and  _364
REMARK  159  A    between atoms: _369  and  _371
REMARK  160  A    between atoms: _371  and  _372
REMARK  161  A    between atoms: _371  and  _374
REMARK  162  A    between atoms: _374  and  _375
REMARK  163  A    between atoms: _378  and  _380
REMARK  164  A    between atoms: _380  and  _381
REMARK  165  A    between atoms: _380  and  _383
REMARK  166  A    between atoms: _386  and  _388
REMARK  167  A    between atoms: _388  and  _389
REMARK  168  A    between atoms: _388  and  _391
REMARK  169  A    between atoms: _391  and  _392
REMARK  170  A    between atoms: _394  and  _396
REMARK  171  A    between atoms: _396  and  _397
REMARK  172  A    between atoms: _396  and  _399
REMARK  173  A    between atoms: _399  and  _400
REMARK  174  A    between atoms: _410  and  _412
REMARK  175  A    between atoms: _412  and  _413
REMARK  176  A    between atoms: _415  and  _417
REMARK  177  A    between atoms: _417  and  _418
REMARK  178  A    between atoms: _417  and  _420
REMARK  179  A    between atoms: _420  and  _421
REMARK  180  A    between atoms: _421  and  _422
REMARK  181  A    between atoms: _425  and  _427
REMARK  182  A    between atoms: _427  and  _428
REMARK  183  A    between atoms: _430  and  _432
REMARK  184  A    between atoms: _432  and  _433
REMARK  185  A    between atoms: _432  and  _435
REMARK  186  A    between atoms: _435  and  _436
REMARK  187  A    between atoms: _437  and  _439
REMARK  188  A    between atoms: _439  and  _440
REMARK  189  A    between atoms: _443  and  _445
REMARK  190  A    between atoms: _445  and  _446
REMARK  191  A    between atoms: _445  and  _448
REMARK  192  A    between atoms: _448  and  _449
REMARK  193  A    between atoms: _449  and  _450
REMARK  194  A    between atoms: _450  and  _451
REMARK  195  A    between atoms: _460  and  _462
REMARK  196  A    between atoms: _462  and  _463
REMARK  197  A    between atoms: _462  and  _465
REMARK  198  A    between atoms: _465  and  _466
REMARK  199  A    between atoms: _466  and  _467
REMARK  200  A    between atoms: _467  and  _468
REMARK  201  A    between atoms: _468  and  _469
REMARK  202  A    between atoms: _473  and  _475
REMARK  203  A    between atoms: _475  and  _476
REMARK  204  A    between atoms: _475  and  _478
REMARK  205  A    between atoms: _478  and  _479
REMARK  206  A    between atoms: _484  and  _485
REMARK  207  A    between atoms: _487  and  _489
REMARK  208  A    between atoms: _489  and  _490
REMARK  209  A    between atoms: _492  and  _494
REMARK  210  A    between atoms: _494  and  _495
REMARK  211  A    between atoms: _494  and  _497
REMARK  212  A    between atoms: _497  and  _498
REMARK  213  A    between atoms: _501  and  _503
REMARK  214  A    between atoms: _503  and  _504
REMARK  215  A    between atoms: _503  and  _506
REMARK  216  A    between atoms: _506  and  _507
REMARK  217  A    between atoms: _512  and  _513
REMARK  218  A    between atoms: _515  and  _517
REMARK  219  A    between atoms: _517  and  _518
REMARK  220  A    between atoms: _517  and  _520
REMARK  221  A    between atoms: _520  and  _521
REMARK                            x       y       z     vdW  Elec       q    Type
REMARK                         _______ _______ _______ _____ _____    ______ ____
ROOT
ATOM      1  O   HOH     1      -5.639   7.174  28.897  0.00  0.00    +0.000 OA
ENDROOT
TORSDOF 0
REMARK  Name = ../refined-set-2016/2xc4/2xc4_pocket.pdb
REMARK  221 active torsions:
REMARK  status: ('A' for Active; 'I' for Inactive)
REMARK    1  A    between atoms: _1  and  _5
REMARK    2  A    between atoms: _5  and  _6
REMARK    3  A    between atoms: _5  and  _8
REMARK    4  A    between atoms: _8  and  _9
REMARK    5  A    between atoms: _12  and  _14
REMARK    6  A    between atoms: _14  and  _15
REMARK    7  A    between atoms: _14  and  _17
REMARK    8  A    between atoms: _20  and  _22
REMARK    9  A    between atoms: _22  and  _23
REMARK   10  A    between atoms: _22  and  _25
REMARK   11  A    between atoms: _25  and  _26
REMARK   12  A    between atoms: _31  and  _33
REMARK   13  A    between atoms: _33  and  _34
REMARK   14  A    between atoms: _33  and  _36
REMARK   15  A    between atoms: _36  and  _37
REMARK   16  A    between atoms: _37  and  _38
REMARK   17  A    between atoms: _43  and  _45
REMARK   18  A    between atoms: _45  and  _46
REMARK   19  A    between atoms: _45  and  _48
REMARK   20  A    between atoms: _48  and  _49
REMARK   21  A    between atoms: _52  and  _54
REMARK   22  A    between atoms: _54  and  _55
REMARK   23  A    between atoms: _54  and  _57
REMARK   24  A    between atoms: _57  and  _58
REMARK   25  A    between atoms: _58  and  _59
REMARK   26  A    between atoms: _59  and  _60
REMARK   27  A    between atoms: _60  and  _61
REMARK   28  A    between atoms: _65  and  _67
REMARK   29  A    between atoms: _67  and  _68
REMARK   30  A    between atoms: _67  and  _70
REMARK   31  A    between atoms: _70  and  _71
REMARK   32  A    between atoms: _71  and  _72
REMARK   33  A    between atoms: _75  and  _77
REMARK   34  A    between atoms: _77  and  _78
REMARK   35  A    between atoms: _77  and  _80
REMARK   36  A    between atoms: _80  and  _81
REMARK   37  A    between atoms: _84  and  _86
REMARK   38  A    between atoms: _86  and  _87
REMARK   39  A    between atoms: _86  and  _89
REMARK   40  A    between atoms: _89  and  _90
REMARK   41  A    between atoms: _95  and  _96
REMARK   42  A    between atoms: _98  and  _100
REMARK   43  A    between atoms: _100  and  _101
REMARK   44  A    between atoms: _100  and  _103
REMARK   45  A    between atoms: _103  and  _104
REMARK   46  A    between atoms: _107  and  _109
REMARK   47  A    between atoms: _109  and  _110
REMARK   48  A    between atoms: _109  and  _112
REMARK   49  A    between atoms: _112  and  _113
REMARK   50  A    between atoms: _116  and  _118
REMARK   51  A    between atoms: _118  and  _119
REMARK   52  A    between atoms: _118  and  _121
REMARK   53  A    between atoms: _124  and  _126
REMARK   54  A    between atoms: _126  and  _127
REMARK   55  A    between atoms: _126  and  _129
REMARK   56  A    between atoms: _129  and  _130
REMARK   57  A    between atoms: _130  and  _131
REMARK   58  A    between atoms: _131  and  _132
REMARK   59  A    between atoms: _141  and  _143
REMARK   60  A    between atoms: _143  and  _144
REMARK   61  A    between atoms: _143  and  _146
REMARK   62  A    between atoms: _146  and  _147
REMARK   63  A    between atoms: _152  and  _154
REMARK   64  A    between atoms: _154  and  _155
REMARK   65  A    between atoms: _154  and  _157
REMARK   66  A    between atoms: _157  and  _158
REMARK   67  A    between atoms: _158  and  _159
REMARK   68  A    between atoms: _162  and  _164
REMARK   69  A    between atoms: _164  and  _165
REMARK   70  A    between atoms: _164  and  _167
REMARK   71  A    between atoms: _167  and  _168
REMARK   72  A    between atoms: _168  and  _169
REMARK   73  A    between atoms: _169  and  _170
REMARK   74  A    between atoms: _170  and  _171
REMARK   75  A    between atoms: _175  and  _177
REMARK   76  A    between atoms: _177  and  _178
REMARK   77  A    between atoms: _180  and  _182
REMARK   78  A    between atoms: _182  and  _183
REMARK   79  A    between atoms: _182  and  _185
REMARK   80  A    between atoms: _188  and  _190
REMARK   81  A    between atoms: _190  and  _191
REMARK   82  A    between atoms: _190  and  _193
REMARK   83  A    between atoms: _193  and  _194
REMARK   84  A    between atoms: _196  and  _198
REMARK   85  A    between atoms: _198  and  _199
REMARK   86  A    between atoms: _198  and  _201
REMARK   87  A    between atoms: _201  and  _202
REMARK   88  A    between atoms: _204  and  _206
REMARK   89  A    between atoms: _206  and  _207
REMARK   90  A    between atoms: _206  and  _209
REMARK   91  A    between atoms: _209  and  _210
REMARK   92  A    between atoms: _216  and  _218
REMARK   93  A    between atoms: _218  and  _219
REMARK   94  A    between atoms: _218  and  _221
REMARK   95  A    between atoms: _221  and  _222
REMARK   96  A    between atoms: _225  and  _227
REMARK   97  A    between atoms: _227  and  _228
REMARK   98  A    between atoms: _227  and  _230
REMARK   99  A    between atoms: _230  and  _231
REMARK  100  A    between atoms: _234  and  _236
REMARK  101  A    between atoms: _236  and  _237
REMARK  102  A    between atoms: _236  and  _239
REMARK  103  A    between atoms: _239  and  _240
REMARK  104  A    between atoms: _243  and  _245
REMARK  105  A    between atoms: _245  and  _246
REMARK  106  A    between atoms: _245  and  _248
REMARK  107  A    between atoms: _248  and  _249
REMARK  108  A    between atoms: _249  and  _250
REMARK  109  A    between atoms: _252  and  _254
REMARK  110  A    between atoms: _254  and  _255
REMARK  111  A    between atoms: _254  and  _257
REMARK  112  A    between atoms: _257  and  _258
REMARK  113  A    between atoms: _264  and  _266
REMARK  114  A    between atoms: _266  and  _267
REMARK  115  A    between atoms: _266  and  _269
REMARK  116  A    between atoms: _271  and  _273
REMARK  117  A    between atoms: _273  and  _274
REMARK  118  A    between atoms: _277  and  _279
REMARK  119  A    between atoms: _279  and  _280
REMARK  120  A    between atoms: _282  and  _284
REMARK  121  A    between atoms: _284  and  _285
REMARK  122  A    between atoms: _284  and  _287
REMARK  123  A    between atoms: _287  and  _288
REMARK  124  A    between atoms: _288  and  _289
REMARK  125  A    between atoms: _292  and  _294
REMARK  126  A    between atoms: _294  and  _295
REMARK  127  A    between atoms: _294  and  _297
REMARK  128  A    between atoms: _297  and  _298
REMARK  129  A    between atoms: _301  and  _303
REMARK  130  A    between atoms: _303  and  _304
REMARK  131  A    between atoms: _307  and  _309
REMARK  132  A    between atoms: _309  and  _310
REMARK  133  A    between atoms: _309  and  _312
REMARK  134  A    between atoms: _312  and  _313
REMARK  135  A    between atoms: _313  and  _436
REMARK  136  A    between atoms: _314  and  _316
REMARK  137  A    between atoms: _316  and  _317
REMARK  138  A    between atoms: _316  and  _319
REMARK  139  A    between atoms: _319  and  _320
REMARK  140  A    between atoms: _320  and  _321
REMARK  141  A    between atoms: _326  and  _328
REMARK  142  A    between atoms: _328  and  _329
REMARK  143  A    between atoms: _331  and  _333
REMARK  144  A    between atoms: _333  and  _334
REMARK  145  A    between atoms: _333  and  _336
REMARK  146  A    between atoms: _336  and  _337
REMARK  147  A    between atoms: _340  and  _342
REMARK  148  A    between atoms: _342  and  _343
REMARK  149  A    between atoms: _342  and  _345
REMARK  150  A    between atoms: _345  and  _346
REMARK  151  A    between atoms: _348  and  _350
REMARK  152  A    between atoms: _350  and  _351
REMARK  153  A    between atoms: _353  and  _355
REMARK  154  A    between atoms: _355  and  _356
REMARK  155  A    between atoms: _358  and  _360
REMARK  156  A    between atoms: _360  and  _361
REMARK  157  A    between atoms: _360  and  _363
REMARK  158  A    between atoms: _363  and  _364
REMARK  159  A    between atoms: _369  and  _371
REMARK  160  A    between atoms: _371  and  _372
REMARK  161  A    between atoms: _371  and  _374
REMARK  162  A    between atoms: _374  and  _375
REMARK  163  A    between atoms: _378  and  _380
REMARK  164  A    between atoms: _380  and  _381
REMARK  165  A    between atoms: _380  and  _383
REMARK  166  A    between atoms: _386  and  _388
REMARK  167  A    between atoms: _388  and  _389
REMARK  168  A    between atoms: _388  and  _391
REMARK  169  A    between atoms: _391  and  _392
REMARK  170  A    between atoms: _394  and  _396
REMARK  171  A    between atoms: _396  and  _397
REMARK  172  A    between atoms: _396  and  _399
REMARK  173  A    between atoms: _399  and  _400
REMARK  174  A    between atoms: _410  and  _412
REMARK  175  A    between atoms: _412  and  _413
REMARK  176  A    between atoms: _415  and  _417
REMARK  177  A    between atoms: _417  and  _418
REMARK  178  A    between atoms: _417  and  _420
REMARK  179  A    between atoms: _420  and  _421
REMARK  180  A    between atoms: _421  and  _422
REMARK  181  A    between atoms: _425  and  _427
REMARK  182  A    between atoms: _427  and  _428
REMARK  183  A    between atoms: _430  and  _432
REMARK  184  A    between atoms: _432  and  _433
REMARK  185  A    between atoms: _432  and  _435
REMARK  186  A    between atoms: _435  and  _436
REMARK  187  A    between atoms: _437  and  _439
REMARK  188  A    between atoms: _439  and  _440
REMARK  189  A    between atoms: _443  and  _445
REMARK  190  A    between atoms: _445  and  _446
REMARK  191  A    between atoms: _445  and  _448
REMARK  192  A    between atoms: _448  and  _449
REMARK  193  A    between atoms: _449  and  _450
REMARK  194  A    between atoms: _450  and  _451
REMARK  195  A    between atoms: _460  and  _462
REMARK  196  A    between atoms: _462  and  _463
REMARK  197  A    between atoms: _462  and  _465
REMARK  198  A    between atoms: _465  and  _466
REMARK  199  A    between atoms: _466  and  _467
REMARK  200  A    between atoms: _467  and  _468
REMARK  201  A    between atoms: _468  and  _469
REMARK  202  A    between atoms: _473  and  _475
REMARK  203  A    between atoms: _475  and  _476
REMARK  204  A    between atoms: _475  and  _478
REMARK  205  A    between atoms: _478  and  _479
REMARK  206  A    between atoms: _484  and  _485
REMARK  207  A    between atoms: _487  and  _489
REMARK  208  A    between atoms: _489  and  _490
REMARK  209  A    between atoms: _492  and  _494
REMARK  210  A    between atoms: _494  and  _495
REMARK  211  A    between atoms: _494  and  _497
REMARK  212  A    between atoms: _497  and  _498
REMARK  213  A    between atoms: _501  and  _503
REMARK  214  A    between atoms: _503  and  _504
REMARK  215  A    between atoms: _503  and  _506
REMARK  216  A    between atoms: _506  and  _507
REMARK  217  A    between atoms: _512  and  _513
REMARK  218  A    between atoms: _515  and  _517
REMARK  219  A    between atoms: _517  and  _518
REMARK  220  A    between atoms: _517  and  _520
REMARK  221  A    between atoms: _520  and  _521
REMARK                            x       y       z     vdW  Elec       q    Type
REMARK                         _______ _______ _______ _____ _____    ______ ____
ROOT
ATOM      1  O   HOH     1       1.301  11.368  24.663  0.00  0.00    +0.000 OA
ENDROOT
TORSDOF 0
REMARK  Name = ../refined-set-2016/2xc4/2xc4_pocket.pdb
REMARK  221 active torsions:
REMARK  status: ('A' for Active; 'I' for Inactive)
REMARK    1  A    between atoms: _1  and  _5
REMARK    2  A    between atoms: _5  and  _6
REMARK    3  A    between atoms: _5  and  _8
REMARK    4  A    between atoms: _8  and  _9
REMARK    5  A    between atoms: _12  and  _14
REMARK    6  A    between atoms: _14  and  _15
REMARK    7  A    between atoms: _14  and  _17
REMARK    8  A    between atoms: _20  and  _22
REMARK    9  A    between atoms: _22  and  _23
REMARK   10  A    between atoms: _22  and  _25
REMARK   11  A    between atoms: _25  and  _26
REMARK   12  A    between atoms: _31  and  _33
REMARK   13  A    between atoms: _33  and  _34
REMARK   14  A    between atoms: _33  and  _36
REMARK   15  A    between atoms: _36  and  _37
REMARK   16  A    between atoms: _37  and  _38
REMARK   17  A    between atoms: _43  and  _45
REMARK   18  A    between atoms: _45  and  _46
REMARK   19  A    between atoms: _45  and  _48
REMARK   20  A    between atoms: _48  and  _49
REMARK   21  A    between atoms: _52  and  _54
REMARK   22  A    between atoms: _54  and  _55
REMARK   23  A    between atoms: _54  and  _57
REMARK   24  A    between atoms: _57  and  _58
REMARK   25  A    between atoms: _58  and  _59
REMARK   26  A    between atoms: _59  and  _60
REMARK   27  A    between atoms: _60  and  _61
REMARK   28  A    between atoms: _65  and  _67
REMARK   29  A    between atoms: _67  and  _68
REMARK   30  A    between atoms: _67  and  _70
REMARK   31  A    between atoms: _70  and  _71
REMARK   32  A    between atoms: _71  and  _72
REMARK   33  A    between atoms: _75  and  _77
REMARK   34  A    between atoms: _77  and  _78
REMARK   35  A    between atoms: _77  and  _80
REMARK   36  A    between atoms: _80  and  _81
REMARK   37  A    between atoms: _84  and  _86
REMARK   38  A    between atoms: _86  and  _87
REMARK   39  A    between atoms: _86  and  _89
REMARK   40  A    between atoms: _89  and  _90
REMARK   41  A    between atoms: _95  and  _96
REMARK   42  A    between atoms: _98  and  _100
REMARK   43  A    between atoms: _100  and  _101
REMARK   44  A    between atoms: _100  and  _103
REMARK   45  A    between atoms: _103  and  _104
REMARK   46  A    between atoms: _107  and  _109
REMARK   47  A    between atoms: _109  and  _110
REMARK   48  A    between atoms: _109  and  _112
REMARK   49  A    between atoms: _112  and  _113
REMARK   50  A    between atoms: _116  and  _118
REMARK   51  A    between atoms: _118  and  _119
REMARK   52  A    between atoms: _118  and  _121
REMARK   53  A    between atoms: _124  and  _126
REMARK   54  A    between atoms: _126  and  _127
REMARK   55  A    between atoms: _126  and  _129
REMARK   56  A    between atoms: _129  and  _130
REMARK   57  A    between atoms: _130  and  _131
REMARK   58  A    between atoms: _131  and  _132
REMARK   59  A    between atoms: _141  and  _143
REMARK   60  A    between atoms: _143  and  _144
REMARK   61  A    between atoms: _143  and  _146
REMARK   62  A    between atoms: _146  and  _147
REMARK   63  A    between atoms: _152  and  _154
REMARK   64  A    between atoms: _154  and  _155
REMARK   65  A    between atoms: _154  and  _157
REMARK   66  A    between atoms: _157  and  _158
REMARK   67  A    between atoms: _158  and  _159
REMARK   68  A    between atoms: _162  and  _164
REMARK   69  A    between atoms: _164  and  _165
REMARK   70  A    between atoms: _164  and  _167
REMARK   71  A    between atoms: _167  and  _168
REMARK   72  A    between atoms: _168  and  _169
REMARK   73  A    between atoms: _169  and  _170
REMARK   74  A    between atoms: _170  and  _171
REMARK   75  A    between atoms: _175  and  _177
REMARK   76  A    between atoms: _177  and  _178
REMARK   77  A    between atoms: _180  and  _182
REMARK   78  A    between atoms: _182  and  _183
REMARK   79  A    between atoms: _182  and  _185
REMARK   80  A    between atoms: _188  and  _190
REMARK   81  A    between atoms: _190  and  _191
REMARK   82  A    between atoms: _190  and  _193
REMARK   83  A    between atoms: _193  and  _194
REMARK   84  A    between atoms: _196  and  _198
REMARK   85  A    between atoms: _198  and  _199
REMARK   86  A    between atoms: _198  and  _201
REMARK   87  A    between atoms: _201  and  _202
REMARK   88  A    between atoms: _204  and  _206
REMARK   89  A    between atoms: _206  and  _207
REMARK   90  A    between atoms: _206  and  _209
REMARK   91  A    between atoms: _209  and  _210
REMARK   92  A    between atoms: _216  and  _218
REMARK   93  A    between atoms: _218  and  _219
REMARK   94  A    between atoms: _218  and  _221
REMARK   95  A    between atoms: _221  and  _222
REMARK   96  A    between atoms: _225  and  _227
REMARK   97  A    between atoms: _227  and  _228
REMARK   98  A    between atoms: _227  and  _230
REMARK   99  A    between atoms: _230  and  _231
REMARK  100  A    between atoms: _234  and  _236
REMARK  101  A    between atoms: _236  and  _237
REMARK  102  A    between atoms: _236  and  _239
REMARK  103  A    between atoms: _239  and  _240
REMARK  104  A    between atoms: _243  and  _245
REMARK  105  A    between atoms: _245  and  _246
REMARK  106  A    between atoms: _245  and  _248
REMARK  107  A    between atoms: _248  and  _249
REMARK  108  A    between atoms: _249  and  _250
REMARK  109  A    between atoms: _252  and  _254
REMARK  110  A    between atoms: _254  and  _255
REMARK  111  A    between atoms: _254  and  _257
REMARK  112  A    between atoms: _257  and  _258
REMARK  113  A    between atoms: _264  and  _266
REMARK  114  A    between atoms: _266  and  _267
REMARK  115  A    between atoms: _266  and  _269
REMARK  116  A    between atoms: _271  and  _273
REMARK  117  A    between atoms: _273  and  _274
REMARK  118  A    between atoms: _277  and  _279
REMARK  119  A    between atoms: _279  and  _280
REMARK  120  A    between atoms: _282  and  _284
REMARK  121  A    between atoms: _284  and  _285
REMARK  122  A    between atoms: _284  and  _287
REMARK  123  A    between atoms: _287  and  _288
REMARK  124  A    between atoms: _288  and  _289
REMARK  125  A    between atoms: _292  and  _294
REMARK  126  A    between atoms: _294  and  _295
REMARK  127  A    between atoms: _294  and  _297
REMARK  128  A    between atoms: _297  and  _298
REMARK  129  A    between atoms: _301  and  _303
REMARK  130  A    between atoms: _303  and  _304
REMARK  131  A    between atoms: _307  and  _309
REMARK  132  A    between atoms: _309  and  _310
REMARK  133  A    between atoms: _309  and  _312
REMARK  134  A    between atoms: _312  and  _313
REMARK  135  A    between atoms: _313  and  _436
REMARK  136  A    between atoms: _314  and  _316
REMARK  137  A    between atoms: _316  and  _317
REMARK  138  A    between atoms: _316  and  _319
REMARK  139  A    between atoms: _319  and  _320
REMARK  140  A    between atoms: _320  and  _321
REMARK  141  A    between atoms: _326  and  _328
REMARK  142  A    between atoms: _328  and  _329
REMARK  143  A    between atoms: _331  and  _333
REMARK  144  A    between atoms: _333  and  _334
REMARK  145  A    between atoms: _333  and  _336
REMARK  146  A    between atoms: _336  and  _337
REMARK  147  A    between atoms: _340  and  _342
REMARK  148  A    between atoms: _342  and  _343
REMARK  149  A    between atoms: _342  and  _345
REMARK  150  A    between atoms: _345  and  _346
REMARK  151  A    between atoms: _348  and  _350
REMARK  152  A    between atoms: _350  and  _351
REMARK  153  A    between atoms: _353  and  _355
REMARK  154  A    between atoms: _355  and  _356
REMARK  155  A    between atoms: _358  and  _360
REMARK  156  A    between atoms: _360  and  _361
REMARK  157  A    between atoms: _360  and  _363
REMARK  158  A    between atoms: _363  and  _364
REMARK  159  A    between atoms: _369  and  _371
REMARK  160  A    between atoms: _371  and  _372
REMARK  161  A    between atoms: _371  and  _374
REMARK  162  A    between atoms: _374  and  _375
REMARK  163  A    between atoms: _378  and  _380
REMARK  164  A    between atoms: _380  and  _381
REMARK  165  A    between atoms: _380  and  _383
REMARK  166  A    between atoms: _386  and  _388
REMARK  167  A    between atoms: _388  and  _389
REMARK  168  A    between atoms: _388  and  _391
REMARK  169  A    between atoms: _391  and  _392
REMARK  170  A    between atoms: _394  and  _396
REMARK  171  A    between atoms: _396  and  _397
REMARK  172  A    between atoms: _396  and  _399
REMARK  173  A    between atoms: _399  and  _400
REMARK  174  A    between atoms: _410  and  _412
REMARK  175  A    between atoms: _412  and  _413
REMARK  176  A    between atoms: _415  and  _417
REMARK  177  A    between atoms: _417  and  _418
REMARK  178  A    between atoms: _417  and  _420
REMARK  179  A    between atoms: _420  and  _421
REMARK  180  A    between atoms: _421  and  _422
REMARK  181  A    between atoms: _425  and  _427
REMARK  182  A    between atoms: _427  and  _428
REMARK  183  A    between atoms: _430  and  _432
REMARK  184  A    between atoms: _432  and  _433
REMARK  185  A    between atoms: _432  and  _435
REMARK  186  A    between atoms: _435  and  _436
REMARK  187  A    between atoms: _437  and  _439
REMARK  188  A    between atoms: _439  and  _440
REMARK  189  A    between atoms: _443  and  _445
REMARK  190  A    between atoms: _445  and  _446
REMARK  191  A    between atoms: _445  and  _448
REMARK  192  A    between atoms: _448  and  _449
REMARK  193  A    between atoms: _449  and  _450
REMARK  194  A    between atoms: _450  and  _451
REMARK  195  A    between atoms: _460  and  _462
REMARK  196  A    between atoms: _462  and  _463
REMARK  197  A    between atoms: _462  and  _465
REMARK  198  A    between atoms: _465  and  _466
REMARK  199  A    between atoms: _466  and  _467
REMARK  200  A    between atoms: _467  and  _468
REMARK  201  A    between atoms: _468  and  _469
REMARK  202  A    between atoms: _473  and  _475
REMARK  203  A    between atoms: _475  and  _476
REMARK  204  A    between atoms: _475  and  _478
REMARK  205  A    between atoms: _478  and  _479
REMARK  206  A    between atoms: _484  and  _485
REMARK  207  A    between atoms: _487  and  _489
REMARK  208  A    between atoms: _489  and  _490
REMARK  209  A    between atoms: _492  and  _494
REMARK  210  A    between atoms: _494  and  _495
REMARK  211  A    between atoms: _494  and  _497
REMARK  212  A    between atoms: _497  and  _498
REMARK  213  A    between atoms: _501  and  _503
REMARK  214  A    between atoms: _503  and  _504
REMARK  215  A    between atoms: _503  and  _506
REMARK  216  A    between atoms: _506  and  _507
REMARK  217  A    between atoms: _512  and  _513
REMARK  218  A    between atoms: _515  and  _517
REMARK  219  A    between atoms: _517  and  _518
REMARK  220  A    between atoms: _517  and  _520
REMARK  221  A    between atoms: _520  and  _521
REMARK                            x       y       z     vdW  Elec       q    Type
REMARK                         _______ _______ _______ _____ _____    ______ ____
ROOT
ATOM      1  O   HOH     1      -0.610   9.623  21.836  0.00  0.00    +0.000 OA
ENDROOT
TORSDOF 0
REMARK  Name = ../refined-set-2016/2xc4/2xc4_pocket.pdb
REMARK  221 active torsions:
REMARK  status: ('A' for Active; 'I' for Inactive)
REMARK    1  A    between atoms: _1  and  _5
REMARK    2  A    between atoms: _5  and  _6
REMARK    3  A    between atoms: _5  and  _8
REMARK    4  A    between atoms: _8  and  _9
REMARK    5  A    between atoms: _12  and  _14
REMARK    6  A    between atoms: _14  and  _15
REMARK    7  A    between atoms: _14  and  _17
REMARK    8  A    between atoms: _20  and  _22
REMARK    9  A    between atoms: _22  and  _23
REMARK   10  A    between atoms: _22  and  _25
REMARK   11  A    between atoms: _25  and  _26
REMARK   12  A    between atoms: _31  and  _33
REMARK   13  A    between atoms: _33  and  _34
REMARK   14  A    between atoms: _33  and  _36
REMARK   15  A    between atoms: _36  and  _37
REMARK   16  A    between atoms: _37  and  _38
REMARK   17  A    between atoms: _43  and  _45
REMARK   18  A    between atoms: _45  and  _46
REMARK   19  A    between atoms: _45  and  _48
REMARK   20  A    between atoms: _48  and  _49
REMARK   21  A    between atoms: _52  and  _54
REMARK   22  A    between atoms: _54  and  _55
REMARK   23  A    between atoms: _54  and  _57
REMARK   24  A    between atoms: _57  and  _58
REMARK   25  A    between atoms: _58  and  _59
REMARK   26  A    between atoms: _59  and  _60
REMARK   27  A    between atoms: _60  and  _61
REMARK   28  A    between atoms: _65  and  _67
REMARK   29  A    between atoms: _67  and  _68
REMARK   30  A    between atoms: _67  and  _70
REMARK   31  A    between atoms: _70  and  _71
REMARK   32  A    between atoms: _71  and  _72
REMARK   33  A    between atoms: _75  and  _77
REMARK   34  A    between atoms: _77  and  _78
REMARK   35  A    between atoms: _77  and  _80
REMARK   36  A    between atoms: _80  and  _81
REMARK   37  A    between atoms: _84  and  _86
REMARK   38  A    between atoms: _86  and  _87
REMARK   39  A    between atoms: _86  and  _89
REMARK   40  A    between atoms: _89  and  _90
REMARK   41  A    between atoms: _95  and  _96
REMARK   42  A    between atoms: _98  and  _100
REMARK   43  A    between atoms: _100  and  _101
REMARK   44  A    between atoms: _100  and  _103
REMARK   45  A    between atoms: _103  and  _104
REMARK   46  A    between atoms: _107  and  _109
REMARK   47  A    between atoms: _109  and  _110
REMARK   48  A    between atoms: _109  and  _112
REMARK   49  A    between atoms: _112  and  _113
REMARK   50  A    between atoms: _116  and  _118
REMARK   51  A    between atoms: _118  and  _119
REMARK   52  A    between atoms: _118  and  _121
REMARK   53  A    between atoms: _124  and  _126
REMARK   54  A    between atoms: _126  and  _127
REMARK   55  A    between atoms: _126  and  _129
REMARK   56  A    between atoms: _129  and  _130
REMARK   57  A    between atoms: _130  and  _131
REMARK   58  A    between atoms: _131  and  _132
REMARK   59  A    between atoms: _141  and  _143
REMARK   60  A    between atoms: _143  and  _144
REMARK   61  A    between atoms: _143  and  _146
REMARK   62  A    between atoms: _146  and  _147
REMARK   63  A    between atoms: _152  and  _154
REMARK   64  A    between atoms: _154  and  _155
REMARK   65  A    between atoms: _154  and  _157
REMARK   66  A    between atoms: _157  and  _158
REMARK   67  A    between atoms: _158  and  _159
REMARK   68  A    between atoms: _162  and  _164
REMARK   69  A    between atoms: _164  and  _165
REMARK   70  A    between atoms: _164  and  _167
REMARK   71  A    between atoms: _167  and  _168
REMARK   72  A    between atoms: _168  and  _169
REMARK   73  A    between atoms: _169  and  _170
REMARK   74  A    between atoms: _170  and  _171
REMARK   75  A    between atoms: _175  and  _177
REMARK   76  A    between atoms: _177  and  _178
REMARK   77  A    between atoms: _180  and  _182
REMARK   78  A    between atoms: _182  and  _183
REMARK   79  A    between atoms: _182  and  _185
REMARK   80  A    between atoms: _188  and  _190
REMARK   81  A    between atoms: _190  and  _191
REMARK   82  A    between atoms: _190  and  _193
REMARK   83  A    between atoms: _193  and  _194
REMARK   84  A    between atoms: _196  and  _198
REMARK   85  A    between atoms: _198  and  _199
REMARK   86  A    between atoms: _198  and  _201
REMARK   87  A    between atoms: _201  and  _202
REMARK   88  A    between atoms: _204  and  _206
REMARK   89  A    between atoms: _206  and  _207
REMARK   90  A    between atoms: _206  and  _209
REMARK   91  A    between atoms: _209  and  _210
REMARK   92  A    between atoms: _216  and  _218
REMARK   93  A    between atoms: _218  and  _219
REMARK   94  A    between atoms: _218  and  _221
REMARK   95  A    between atoms: _221  and  _222
REMARK   96  A    between atoms: _225  and  _227
REMARK   97  A    between atoms: _227  and  _228
REMARK   98  A    between atoms: _227  and  _230
REMARK   99  A    between atoms: _230  and  _231
REMARK  100  A    between atoms: _234  and  _236
REMARK  101  A    between atoms: _236  and  _237
REMARK  102  A    between atoms: _236  and  _239
REMARK  103  A    between atoms: _239  and  _240
REMARK  104  A    between atoms: _243  and  _245
REMARK  105  A    between atoms: _245  and  _246
REMARK  106  A    between atoms: _245  and  _248
REMARK  107  A    between atoms: _248  and  _249
REMARK  108  A    between atoms: _249  and  _250
REMARK  109  A    between atoms: _252  and  _254
REMARK  110  A    between atoms: _254  and  _255
REMARK  111  A    between atoms: _254  and  _257
REMARK  112  A    between atoms: _257  and  _258
REMARK  113  A    between atoms: _264  and  _266
REMARK  114  A    between atoms: _266  and  _267
REMARK  115  A    between atoms: _266  and  _269
REMARK  116  A    between atoms: _271  and  _273
REMARK  117  A    between atoms: _273  and  _274
REMARK  118  A    between atoms: _277  and  _279
REMARK  119  A    between atoms: _279  and  _280
REMARK  120  A    between atoms: _282  and  _284
REMARK  121  A    between atoms: _284  and  _285
REMARK  122  A    between atoms: _284  and  _287
REMARK  123  A    between atoms: _287  and  _288
REMARK  124  A    between atoms: _288  and  _289
REMARK  125  A    between atoms: _292  and  _294
REMARK  126  A    between atoms: _294  and  _295
REMARK  127  A    between atoms: _294  and  _297
REMARK  128  A    between atoms: _297  and  _298
REMARK  129  A    between atoms: _301  and  _303
REMARK  130  A    between atoms: _303  and  _304
REMARK  131  A    between atoms: _307  and  _309
REMARK  132  A    between atoms: _309  and  _310
REMARK  133  A    between atoms: _309  and  _312
REMARK  134  A    between atoms: _312  and  _313
REMARK  135  A    between atoms: _313  and  _436
REMARK  136  A    between atoms: _314  and  _316
REMARK  137  A    between atoms: _316  and  _317
REMARK  138  A    between atoms: _316  and  _319
REMARK  139  A    between atoms: _319  and  _320
REMARK  140  A    between atoms: _320  and  _321
REMARK  141  A    between atoms: _326  and  _328
REMARK  142  A    between atoms: _328  and  _329
REMARK  143  A    between atoms: _331  and  _333
REMARK  144  A    between atoms: _333  and  _334
REMARK  145  A    between atoms: _333  and  _336
REMARK  146  A    between atoms: _336  and  _337
REMARK  147  A    between atoms: _340  and  _342
REMARK  148  A    between atoms: _342  and  _343
REMARK  149  A    between atoms: _342  and  _345
REMARK  150  A    between atoms: _345  and  _346
REMARK  151  A    between atoms: _348  and  _350
REMARK  152  A    between atoms: _350  and  _351
REMARK  153  A    between atoms: _353  and  _355
REMARK  154  A    between atoms: _355  and  _356
REMARK  155  A    between atoms: _358  and  _360
REMARK  156  A    between atoms: _360  and  _361
REMARK  157  A    between atoms: _360  and  _363
REMARK  158  A    between atoms: _363  and  _364
REMARK  159  A    between atoms: _369  and  _371
REMARK  160  A    between atoms: _371  and  _372
REMARK  161  A    between atoms: _371  and  _374
REMARK  162  A    between atoms: _374  and  _375
REMARK  163  A    between atoms: _378  and  _380
REMARK  164  A    between atoms: _380  and  _381
REMARK  165  A    between atoms: _380  and  _383
REMARK  166  A    between atoms: _386  and  _388
REMARK  167  A    between atoms: _388  and  _389
REMARK  168  A    between atoms: _388  and  _391
REMARK  169  A    between atoms: _391  and  _392
REMARK  170  A    between atoms: _394  and  _396
REMARK  171  A    between atoms: _396  and  _397
REMARK  172  A    between atoms: _396  and  _399
REMARK  173  A    between atoms: _399  and  _400
REMARK  174  A    between atoms: _410  and  _412
REMARK  175  A    between atoms: _412  and  _413
REMARK  176  A    between atoms: _415  and  _417
REMARK  177  A    between atoms: _417  and  _418
REMARK  178  A    between atoms: _417  and  _420
REMARK  179  A    between atoms: _420  and  _421
REMARK  180  A    between atoms: _421  and  _422
REMARK  181  A    between atoms: _425  and  _427
REMARK  182  A    between atoms: _427  and  _428
REMARK  183  A    between atoms: _430  and  _432
REMARK  184  A    between atoms: _432  and  _433
REMARK  185  A    between atoms: _432  and  _435
REMARK  186  A    between atoms: _435  and  _436
REMARK  187  A    between atoms: _437  and  _439
REMARK  188  A    between atoms: _439  and  _440
REMARK  189  A    between atoms: _443  and  _445
REMARK  190  A    between atoms: _445  and  _446
REMARK  191  A    between atoms: _445  and  _448
REMARK  192  A    between atoms: _448  and  _449
REMARK  193  A    between atoms: _449  and  _450
REMARK  194  A    between atoms: _450  and  _451
REMARK  195  A    between atoms: _460  and  _462
REMARK  196  A    between atoms: _462  and  _463
REMARK  197  A    between atoms: _462  and  _465
REMARK  198  A    between atoms: _465  and  _466
REMARK  199  A    between atoms: _466  and  _467
REMARK  200  A    between atoms: _467  and  _468
REMARK  201  A    between atoms: _468  and  _469
REMARK  202  A    between atoms: _473  and  _475
REMARK  203  A    between atoms: _475  and  _476
REMARK  204  A    between atoms: _475  and  _478
REMARK  205  A    between atoms: _478  and  _479
REMARK  206  A    between atoms: _484  and  _485
REMARK  207  A    between atoms: _487  and  _489
REMARK  208  A    between atoms: _489  and  _490
REMARK  209  A    between atoms: _492  and  _494
REMARK  210  A    between atoms: _494  and  _495
REMARK  211  A    between atoms: _494  and  _497
REMARK  212  A    between atoms: _497  and  _498
REMARK  213  A    between atoms: _501  and  _503
REMARK  214  A    between atoms: _503  and  _504
REMARK  215  A    between atoms: _503  and  _506
REMARK  216  A    between atoms: _506  and  _507
REMARK  217  A    between atoms: _512  and  _513
REMARK  218  A    between atoms: _515  and  _517
REMARK  219  A    between atoms: _517  and  _518
REMARK  220  A    between atoms: _517  and  _520
REMARK  221  A    between atoms: _520  and  _521
REMARK                            x       y       z     vdW  Elec       q    Type
REMARK                         _______ _______ _______ _____ _____    ______ ____
ROOT
ATOM      1  O   HOH     1      -9.038   3.295  24.885  0.00  0.00    +0.000 OA
ENDROOT
TORSDOF 0
REMARK  Name = ../refined-set-2016/2xc4/2xc4_pocket.pdb
REMARK  221 active torsions:
REMARK  status: ('A' for Active; 'I' for Inactive)
REMARK    1  A    between atoms: _1  and  _5
REMARK    2  A    between atoms: _5  and  _6
REMARK    3  A    between atoms: _5  and  _8
REMARK    4  A    between atoms: _8  and  _9
REMARK    5  A    between atoms: _12  and  _14
REMARK    6  A    between atoms: _14  and  _15
REMARK    7  A    between atoms: _14  and  _17
REMARK    8  A    between atoms: _20  and  _22
REMARK    9  A    between atoms: _22  and  _23
REMARK   10  A    between atoms: _22  and  _25
REMARK   11  A    between atoms: _25  and  _26
REMARK   12  A    between atoms: _31  and  _33
REMARK   13  A    between atoms: _33  and  _34
REMARK   14  A    between atoms: _33  and  _36
REMARK   15  A    between atoms: _36  and  _37
REMARK   16  A    between atoms: _37  and  _38
REMARK   17  A    between atoms: _43  and  _45
REMARK   18  A    between atoms: _45  and  _46
REMARK   19  A    between atoms: _45  and  _48
REMARK   20  A    between atoms: _48  and  _49
REMARK   21  A    between atoms: _52  and  _54
REMARK   22  A    between atoms: _54  and  _55
REMARK   23  A    between atoms: _54  and  _57
REMARK   24  A    between atoms: _57  and  _58
REMARK   25  A    between atoms: _58  and  _59
REMARK   26  A    between atoms: _59  and  _60
REMARK   27  A    between atoms: _60  and  _61
REMARK   28  A    between atoms: _65  and  _67
REMARK   29  A    between atoms: _67  and  _68
REMARK   30  A    between atoms: _67  and  _70
REMARK   31  A    between atoms: _70  and  _71
REMARK   32  A    between atoms: _71  and  _72
REMARK   33  A    between atoms: _75  and  _77
REMARK   34  A    between atoms: _77  and  _78
REMARK   35  A    between atoms: _77  and  _80
REMARK   36  A    between atoms: _80  and  _81
REMARK   37  A    between atoms: _84  and  _86
REMARK   38  A    between atoms: _86  and  _87
REMARK   39  A    between atoms: _86  and  _89
REMARK   40  A    between atoms: _89  and  _90
REMARK   41  A    between atoms: _95  and  _96
REMARK   42  A    between atoms: _98  and  _100
REMARK   43  A    between atoms: _100  and  _101
REMARK   44  A    between atoms: _100  and  _103
REMARK   45  A    between atoms: _103  and  _104
REMARK   46  A    between atoms: _107  and  _109
REMARK   47  A    between atoms: _109  and  _110
REMARK   48  A    between atoms: _109  and  _112
REMARK   49  A    between atoms: _112  and  _113
REMARK   50  A    between atoms: _116  and  _118
REMARK   51  A    between atoms: _118  and  _119
REMARK   52  A    between atoms: _118  and  _121
REMARK   53  A    between atoms: _124  and  _126
REMARK   54  A    between atoms: _126  and  _127
REMARK   55  A    between atoms: _126  and  _129
REMARK   56  A    between atoms: _129  and  _130
REMARK   57  A    between atoms: _130  and  _131
REMARK   58  A    between atoms: _131  and  _132
REMARK   59  A    between atoms: _141  and  _143
REMARK   60  A    between atoms: _143  and  _144
REMARK   61  A    between atoms: _143  and  _146
REMARK   62  A    between atoms: _146  and  _147
REMARK   63  A    between atoms: _152  and  _154
REMARK   64  A    between atoms: _154  and  _155
REMARK   65  A    between atoms: _154  and  _157
REMARK   66  A    between atoms: _157  and  _158
REMARK   67  A    between atoms: _158  and  _159
REMARK   68  A    between atoms: _162  and  _164
REMARK   69  A    between atoms: _164  and  _165
REMARK   70  A    between atoms: _164  and  _167
REMARK   71  A    between atoms: _167  and  _168
REMARK   72  A    between atoms: _168  and  _169
REMARK   73  A    between atoms: _169  and  _170
REMARK   74  A    between atoms: _170  and  _171
REMARK   75  A    between atoms: _175  and  _177
REMARK   76  A    between atoms: _177  and  _178
REMARK   77  A    between atoms: _180  and  _182
REMARK   78  A    between atoms: _182  and  _183
REMARK   79  A    between atoms: _182  and  _185
REMARK   80  A    between atoms: _188  and  _190
REMARK   81  A    between atoms: _190  and  _191
REMARK   82  A    between atoms: _190  and  _193
REMARK   83  A    between atoms: _193  and  _194
REMARK   84  A    between atoms: _196  and  _198
REMARK   85  A    between atoms: _198  and  _199
REMARK   86  A    between atoms: _198  and  _201
REMARK   87  A    between atoms: _201  and  _202
REMARK   88  A    between atoms: _204  and  _206
REMARK   89  A    between atoms: _206  and  _207
REMARK   90  A    between atoms: _206  and  _209
REMARK   91  A    between atoms: _209  and  _210
REMARK   92  A    between atoms: _216  and  _218
REMARK   93  A    between atoms: _218  and  _219
REMARK   94  A    between atoms: _218  and  _221
REMARK   95  A    between atoms: _221  and  _222
REMARK   96  A    between atoms: _225  and  _227
REMARK   97  A    between atoms: _227  and  _228
REMARK   98  A    between atoms: _227  and  _230
REMARK   99  A    between atoms: _230  and  _231
REMARK  100  A    between atoms: _234  and  _236
REMARK  101  A    between atoms: _236  and  _237
REMARK  102  A    between atoms: _236  and  _239
REMARK  103  A    between atoms: _239  and  _240
REMARK  104  A    between atoms: _243  and  _245
REMARK  105  A    between atoms: _245  and  _246
REMARK  106  A    between atoms: _245  and  _248
REMARK  107  A    between atoms: _248  and  _249
REMARK  108  A    between atoms: _249  and  _250
REMARK  109  A    between atoms: _252  and  _254
REMARK  110  A    between atoms: _254  and  _255
REMARK  111  A    between atoms: _254  and  _257
REMARK  112  A    between atoms: _257  and  _258
REMARK  113  A    between atoms: _264  and  _266
REMARK  114  A    between atoms: _266  and  _267
REMARK  115  A    between atoms: _266  and  _269
REMARK  116  A    between atoms: _271  and  _273
REMARK  117  A    between atoms: _273  and  _274
REMARK  118  A    between atoms: _277  and  _279
REMARK  119  A    between atoms: _279  and  _280
REMARK  120  A    between atoms: _282  and  _284
REMARK  121  A    between atoms: _284  and  _285
REMARK  122  A    between atoms: _284  and  _287
REMARK  123  A    between atoms: _287  and  _288
REMARK  124  A    between atoms: _288  and  _289
REMARK  125  A    between atoms: _292  and  _294
REMARK  126  A    between atoms: _294  and  _295
REMARK  127  A    between atoms: _294  and  _297
REMARK  128  A    between atoms: _297  and  _298
REMARK  129  A    between atoms: _301  and  _303
REMARK  130  A    between atoms: _303  and  _304
REMARK  131  A    between atoms: _307  and  _309
REMARK  132  A    between atoms: _309  and  _310
REMARK  133  A    between atoms: _309  and  _312
REMARK  134  A    between atoms: _312  and  _313
REMARK  135  A    between atoms: _313  and  _436
REMARK  136  A    between atoms: _314  and  _316
REMARK  137  A    between atoms: _316  and  _317
REMARK  138  A    between atoms: _316  and  _319
REMARK  139  A    between atoms: _319  and  _320
REMARK  140  A    between atoms: _320  and  _321
REMARK  141  A    between atoms: _326  and  _328
REMARK  142  A    between atoms: _328  and  _329
REMARK  143  A    between atoms: _331  and  _333
REMARK  144  A    between atoms: _333  and  _334
REMARK  145  A    between atoms: _333  and  _336
REMARK  146  A    between atoms: _336  and  _337
REMARK  147  A    between atoms: _340  and  _342
REMARK  148  A    between atoms: _342  and  _343
REMARK  149  A    between atoms: _342  and  _345
REMARK  150  A    between atoms: _345  and  _346
REMARK  151  A    between atoms: _348  and  _350
REMARK  152  A    between atoms: _350  and  _351
REMARK  153  A    between atoms: _353  and  _355
REMARK  154  A    between atoms: _355  and  _356
REMARK  155  A    between atoms: _358  and  _360
REMARK  156  A    between atoms: _360  and  _361
REMARK  157  A    between atoms: _360  and  _363
REMARK  158  A    between atoms: _363  and  _364
REMARK  159  A    between atoms: _369  and  _371
REMARK  160  A    between atoms: _371  and  _372
REMARK  161  A    between atoms: _371  and  _374
REMARK  162  A    between atoms: _374  and  _375
REMARK  163  A    between atoms: _378  and  _380
REMARK  164  A    between atoms: _380  and  _381
REMARK  165  A    between atoms: _380  and  _383
REMARK  166  A    between atoms: _386  and  _388
REMARK  167  A    between atoms: _388  and  _389
REMARK  168  A    between atoms: _388  and  _391
REMARK  169  A    between atoms: _391  and  _392
REMARK  170  A    between atoms: _394  and  _396
REMARK  171  A    between atoms: _396  and  _397
REMARK  172  A    between atoms: _396  and  _399
REMARK  173  A    between atoms: _399  and  _400
REMARK  174  A    between atoms: _410  and  _412
REMARK  175  A    between atoms: _412  and  _413
REMARK  176  A    between atoms: _415  and  _417
REMARK  177  A    between atoms: _417  and  _418
REMARK  178  A    between atoms: _417  and  _420
REMARK  179  A    between atoms: _420  and  _421
REMARK  180  A    between atoms: _421  and  _422
REMARK  181  A    between atoms: _425  and  _427
REMARK  182  A    between atoms: _427  and  _428
REMARK  183  A    between atoms: _430  and  _432
REMARK  184  A    between atoms: _432  and  _433
REMARK  185  A    between atoms: _432  and  _435
REMARK  186  A    between atoms: _435  and  _436
REMARK  187  A    between atoms: _437  and  _439
REMARK  188  A    between atoms: _439  and  _440
REMARK  189  A    between atoms: _443  and  _445
REMARK  190  A    between atoms: _445  and  _446
REMARK  191  A    between atoms: _445  and  _448
REMARK  192  A    between atoms: _448  and  _449
REMARK  193  A    between atoms: _449  and  _450
REMARK  194  A    between atoms: _450  and  _451
REMARK  195  A    between atoms: _460  and  _462
REMARK  196  A    between atoms: _462  and  _463
REMARK  197  A    between atoms: _462  and  _465
REMARK  198  A    between atoms: _465  and  _466
REMARK  199  A    between atoms: _466  and  _467
REMARK  200  A    between atoms: _467  and  _468
REMARK  201  A    between atoms: _468  and  _469
REMARK  202  A    between atoms: _473  and  _475
REMARK  203  A    between atoms: _475  and  _476
REMARK  204  A    between atoms: _475  and  _478
REMARK  205  A    between atoms: _478  and  _479
REMARK  206  A    between atoms: _484  and  _485
REMARK  207  A    between atoms: _487  and  _489
REMARK  208  A    between atoms: _489  and  _490
REMARK  209  A    between atoms: _492  and  _494
REMARK  210  A    between atoms: _494  and  _495
REMARK  211  A    between atoms: _494  and  _497
REMARK  212  A    between atoms: _497  and  _498
REMARK  213  A    between atoms: _501  and  _503
REMARK  214  A    between atoms: _503  and  _504
REMARK  215  A    between atoms: _503  and  _506
REMARK  216  A    between atoms: _506  and  _507
REMARK  217  A    between atoms: _512  and  _513
REMARK  218  A    between atoms: _515  and  _517
REMARK  219  A    between atoms: _517  and  _518
REMARK  220  A    between atoms: _517  and  _520
REMARK  221  A    between atoms: _520  and  _521
REMARK                            x       y       z     vdW  Elec       q    Type
REMARK                         _______ _______ _______ _____ _____    ______ ____
ROOT
ATOM      1  O   HOH     1      -7.746   8.638  29.603  0.00  0.00    +0.000 OA
ENDROOT
TORSDOF 0
REMARK  Name = ../refined-set-2016/2xc4/2xc4_pocket.pdb
REMARK  221 active torsions:
REMARK  status: ('A' for Active; 'I' for Inactive)
REMARK    1  A    between atoms: _1  and  _5
REMARK    2  A    between atoms: _5  and  _6
REMARK    3  A    between atoms: _5  and  _8
REMARK    4  A    between atoms: _8  and  _9
REMARK    5  A    between atoms: _12  and  _14
REMARK    6  A    between atoms: _14  and  _15
REMARK    7  A    between atoms: _14  and  _17
REMARK    8  A    between atoms: _20  and  _22
REMARK    9  A    between atoms: _22  and  _23
REMARK   10  A    between atoms: _22  and  _25
REMARK   11  A    between atoms: _25  and  _26
REMARK   12  A    between atoms: _31  and  _33
REMARK   13  A    between atoms: _33  and  _34
REMARK   14  A    between atoms: _33  and  _36
REMARK   15  A    between atoms: _36  and  _37
REMARK   16  A    between atoms: _37  and  _38
REMARK   17  A    between atoms: _43  and  _45
REMARK   18  A    between atoms: _45  and  _46
REMARK   19  A    between atoms: _45  and  _48
REMARK   20  A    between atoms: _48  and  _49
REMARK   21  A    between atoms: _52  and  _54
REMARK   22  A    between atoms: _54  and  _55
REMARK   23  A    between atoms: _54  and  _57
REMARK   24  A    between atoms: _57  and  _58
REMARK   25  A    between atoms: _58  and  _59
REMARK   26  A    between atoms: _59  and  _60
REMARK   27  A    between atoms: _60  and  _61
REMARK   28  A    between atoms: _65  and  _67
REMARK   29  A    between atoms: _67  and  _68
REMARK   30  A    between atoms: _67  and  _70
REMARK   31  A    between atoms: _70  and  _71
REMARK   32  A    between atoms: _71  and  _72
REMARK   33  A    between atoms: _75  and  _77
REMARK   34  A    between atoms: _77  and  _78
REMARK   35  A    between atoms: _77  and  _80
REMARK   36  A    between atoms: _80  and  _81
REMARK   37  A    between atoms: _84  and  _86
REMARK   38  A    between atoms: _86  and  _87
REMARK   39  A    between atoms: _86  and  _89
REMARK   40  A    between atoms: _89  and  _90
REMARK   41  A    between atoms: _95  and  _96
REMARK   42  A    between atoms: _98  and  _100
REMARK   43  A    between atoms: _100  and  _101
REMARK   44  A    between atoms: _100  and  _103
REMARK   45  A    between atoms: _103  and  _104
REMARK   46  A    between atoms: _107  and  _109
REMARK   47  A    between atoms: _109  and  _110
REMARK   48  A    between atoms: _109  and  _112
REMARK   49  A    between atoms: _112  and  _113
REMARK   50  A    between atoms: _116  and  _118
REMARK   51  A    between atoms: _118  and  _119
REMARK   52  A    between atoms: _118  and  _121
REMARK   53  A    between atoms: _124  and  _126
REMARK   54  A    between atoms: _126  and  _127
REMARK   55  A    between atoms: _126  and  _129
REMARK   56  A    between atoms: _129  and  _130
REMARK   57  A    between atoms: _130  and  _131
REMARK   58  A    between atoms: _131  and  _132
REMARK   59  A    between atoms: _141  and  _143
REMARK   60  A    between atoms: _143  and  _144
REMARK   61  A    between atoms: _143  and  _146
REMARK   62  A    between atoms: _146  and  _147
REMARK   63  A    between atoms: _152  and  _154
REMARK   64  A    between atoms: _154  and  _155
REMARK   65  A    between atoms: _154  and  _157
REMARK   66  A    between atoms: _157  and  _158
REMARK   67  A    between atoms: _158  and  _159
REMARK   68  A    between atoms: _162  and  _164
REMARK   69  A    between atoms: _164  and  _165
REMARK   70  A    between atoms: _164  and  _167
REMARK   71  A    between atoms: _167  and  _168
REMARK   72  A    between atoms: _168  and  _169
REMARK   73  A    between atoms: _169  and  _170
REMARK   74  A    between atoms: _170  and  _171
REMARK   75  A    between atoms: _175  and  _177
REMARK   76  A    between atoms: _177  and  _178
REMARK   77  A    between atoms: _180  and  _182
REMARK   78  A    between atoms: _182  and  _183
REMARK   79  A    between atoms: _182  and  _185
REMARK   80  A    between atoms: _188  and  _190
REMARK   81  A    between atoms: _190  and  _191
REMARK   82  A    between atoms: _190  and  _193
REMARK   83  A    between atoms: _193  and  _194
REMARK   84  A    between atoms: _196  and  _198
REMARK   85  A    between atoms: _198  and  _199
REMARK   86  A    between atoms: _198  and  _201
REMARK   87  A    between atoms: _201  and  _202
REMARK   88  A    between atoms: _204  and  _206
REMARK   89  A    between atoms: _206  and  _207
REMARK   90  A    between atoms: _206  and  _209
REMARK   91  A    between atoms: _209  and  _210
REMARK   92  A    between atoms: _216  and  _218
REMARK   93  A    between atoms: _218  and  _219
REMARK   94  A    between atoms: _218  and  _221
REMARK   95  A    between atoms: _221  and  _222
REMARK   96  A    between atoms: _225  and  _227
REMARK   97  A    between atoms: _227  and  _228
REMARK   98  A    between atoms: _227  and  _230
REMARK   99  A    between atoms: _230  and  _231
REMARK  100  A    between atoms: _234  and  _236
REMARK  101  A    between atoms: _236  and  _237
REMARK  102  A    between atoms: _236  and  _239
REMARK  103  A    between atoms: _239  and  _240
REMARK  104  A    between atoms: _243  and  _245
REMARK  105  A    between atoms: _245  and  _246
REMARK  106  A    between atoms: _245  and  _248
REMARK  107  A    between atoms: _248  and  _249
REMARK  108  A    between atoms: _249  and  _250
REMARK  109  A    between atoms: _252  and  _254
REMARK  110  A    between atoms: _254  and  _255
REMARK  111  A    between atoms: _254  and  _257
REMARK  112  A    between atoms: _257  and  _258
REMARK  113  A    between atoms: _264  and  _266
REMARK  114  A    between atoms: _266  and  _267
REMARK  115  A    between atoms: _266  and  _269
REMARK  116  A    between atoms: _271  and  _273
REMARK  117  A    between atoms: _273  and  _274
REMARK  118  A    between atoms: _277  and  _279
REMARK  119  A    between atoms: _279  and  _280
REMARK  120  A    between atoms: _282  and  _284
REMARK  121  A    between atoms: _284  and  _285
REMARK  122  A    between atoms: _284  and  _287
REMARK  123  A    between atoms: _287  and  _288
REMARK  124  A    between atoms: _288  and  _289
REMARK  125  A    between atoms: _292  and  _294
REMARK  126  A    between atoms: _294  and  _295
REMARK  127  A    between atoms: _294  and  _297
REMARK  128  A    between atoms: _297  and  _298
REMARK  129  A    between atoms: _301  and  _303
REMARK  130  A    between atoms: _303  and  _304
REMARK  131  A    between atoms: _307  and  _309
REMARK  132  A    between atoms: _309  and  _310
REMARK  133  A    between atoms: _309  and  _312
REMARK  134  A    between atoms: _312  and  _313
REMARK  135  A    between atoms: _313  and  _436
REMARK  136  A    between atoms: _314  and  _316
REMARK  137  A    between atoms: _316  and  _317
REMARK  138  A    between atoms: _316  and  _319
REMARK  139  A    between atoms: _319  and  _320
REMARK  140  A    between atoms: _320  and  _321
REMARK  141  A    between atoms: _326  and  _328
REMARK  142  A    between atoms: _328  and  _329
REMARK  143  A    between atoms: _331  and  _333
REMARK  144  A    between atoms: _333  and  _334
REMARK  145  A    between atoms: _333  and  _336
REMARK  146  A    between atoms: _336  and  _337
REMARK  147  A    between atoms: _340  and  _342
REMARK  148  A    between atoms: _342  and  _343
REMARK  149  A    between atoms: _342  and  _345
REMARK  150  A    between atoms: _345  and  _346
REMARK  151  A    between atoms: _348  and  _350
REMARK  152  A    between atoms: _350  and  _351
REMARK  153  A    between atoms: _353  and  _355
REMARK  154  A    between atoms: _355  and  _356
REMARK  155  A    between atoms: _358  and  _360
REMARK  156  A    between atoms: _360  and  _361
REMARK  157  A    between atoms: _360  and  _363
REMARK  158  A    between atoms: _363  and  _364
REMARK  159  A    between atoms: _369  and  _371
REMARK  160  A    between atoms: _371  and  _372
REMARK  161  A    between atoms: _371  and  _374
REMARK  162  A    between atoms: _374  and  _375
REMARK  163  A    between atoms: _378  and  _380
REMARK  164  A    between atoms: _380  and  _381
REMARK  165  A    between atoms: _380  and  _383
REMARK  166  A    between atoms: _386  and  _388
REMARK  167  A    between atoms: _388  and  _389
REMARK  168  A    between atoms: _388  and  _391
REMARK  169  A    between atoms: _391  and  _392
REMARK  170  A    between atoms: _394  and  _396
REMARK  171  A    between atoms: _396  and  _397
REMARK  172  A    between atoms: _396  and  _399
REMARK  173  A    between atoms: _399  and  _400
REMARK  174  A    between atoms: _410  and  _412
REMARK  175  A    between atoms: _412  and  _413
REMARK  176  A    between atoms: _415  and  _417
REMARK  177  A    between atoms: _417  and  _418
REMARK  178  A    between atoms: _417  and  _420
REMARK  179  A    between atoms: _420  and  _421
REMARK  180  A    between atoms: _421  and  _422
REMARK  181  A    between atoms: _425  and  _427
REMARK  182  A    between atoms: _427  and  _428
REMARK  183  A    between atoms: _430  and  _432
REMARK  184  A    between atoms: _432  and  _433
REMARK  185  A    between atoms: _432  and  _435
REMARK  186  A    between atoms: _435  and  _436
REMARK  187  A    between atoms: _437  and  _439
REMARK  188  A    between atoms: _439  and  _440
REMARK  189  A    between atoms: _443  and  _445
REMARK  190  A    between atoms: _445  and  _446
REMARK  191  A    between atoms: _445  and  _448
REMARK  192  A    between atoms: _448  and  _449
REMARK  193  A    between atoms: _449  and  _450
REMARK  194  A    between atoms: _450  and  _451
REMARK  195  A    between atoms: _460  and  _462
REMARK  196  A    between atoms: _462  and  _463
REMARK  197  A    between atoms: _462  and  _465
REMARK  198  A    between atoms: _465  and  _466
REMARK  199  A    between atoms: _466  and  _467
REMARK  200  A    between atoms: _467  and  _468
REMARK  201  A    between atoms: _468  and  _469
REMARK  202  A    between atoms: _473  and  _475
REMARK  203  A    between atoms: _475  and  _476
REMARK  204  A    between atoms: _475  and  _478
REMARK  205  A    between atoms: _478  and  _479
REMARK  206  A    between atoms: _484  and  _485
REMARK  207  A    between atoms: _487  and  _489
REMARK  208  A    between atoms: _489  and  _490
REMARK  209  A    between atoms: _492  and  _494
REMARK  210  A    between atoms: _494  and  _495
REMARK  211  A    between atoms: _494  and  _497
REMARK  212  A    between atoms: _497  and  _498
REMARK  213  A    between atoms: _501  and  _503
REMARK  214  A    between atoms: _503  and  _504
REMARK  215  A    between atoms: _503  and  _506
REMARK  216  A    between atoms: _506  and  _507
REMARK  217  A    between atoms: _512  and  _513
REMARK  218  A    between atoms: _515  and  _517
REMARK  219  A    between atoms: _517  and  _518
REMARK  220  A    between atoms: _517  and  _520
REMARK  221  A    between atoms: _520  and  _521
REMARK                            x       y       z     vdW  Elec       q    Type
REMARK                         _______ _______ _______ _____ _____    ______ ____
ROOT
ATOM      1  O   HOH     1     -12.466   9.110  22.373  0.00  0.00    +0.000 OA
ENDROOT
TORSDOF 0
REMARK  Name = ../refined-set-2016/2xc4/2xc4_pocket.pdb
REMARK  221 active torsions:
REMARK  status: ('A' for Active; 'I' for Inactive)
REMARK    1  A    between atoms: _1  and  _5
REMARK    2  A    between atoms: _5  and  _6
REMARK    3  A    between atoms: _5  and  _8
REMARK    4  A    between atoms: _8  and  _9
REMARK    5  A    between atoms: _12  and  _14
REMARK    6  A    between atoms: _14  and  _15
REMARK    7  A    between atoms: _14  and  _17
REMARK    8  A    between atoms: _20  and  _22
REMARK    9  A    between atoms: _22  and  _23
REMARK   10  A    between atoms: _22  and  _25
REMARK   11  A    between atoms: _25  and  _26
REMARK   12  A    between atoms: _31  and  _33
REMARK   13  A    between atoms: _33  and  _34
REMARK   14  A    between atoms: _33  and  _36
REMARK   15  A    between atoms: _36  and  _37
REMARK   16  A    between atoms: _37  and  _38
REMARK   17  A    between atoms: _43  and  _45
REMARK   18  A    between atoms: _45  and  _46
REMARK   19  A    between atoms: _45  and  _48
REMARK   20  A    between atoms: _48  and  _49
REMARK   21  A    between atoms: _52  and  _54
REMARK   22  A    between atoms: _54  and  _55
REMARK   23  A    between atoms: _54  and  _57
REMARK   24  A    between atoms: _57  and  _58
REMARK   25  A    between atoms: _58  and  _59
REMARK   26  A    between atoms: _59  and  _60
REMARK   27  A    between atoms: _60  and  _61
REMARK   28  A    between atoms: _65  and  _67
REMARK   29  A    between atoms: _67  and  _68
REMARK   30  A    between atoms: _67  and  _70
REMARK   31  A    between atoms: _70  and  _71
REMARK   32  A    between atoms: _71  and  _72
REMARK   33  A    between atoms: _75  and  _77
REMARK   34  A    between atoms: _77  and  _78
REMARK   35  A    between atoms: _77  and  _80
REMARK   36  A    between atoms: _80  and  _81
REMARK   37  A    between atoms: _84  and  _86
REMARK   38  A    between atoms: _86  and  _87
REMARK   39  A    between atoms: _86  and  _89
REMARK   40  A    between atoms: _89  and  _90
REMARK   41  A    between atoms: _95  and  _96
REMARK   42  A    between atoms: _98  and  _100
REMARK   43  A    between atoms: _100  and  _101
REMARK   44  A    between atoms: _100  and  _103
REMARK   45  A    between atoms: _103  and  _104
REMARK   46  A    between atoms: _107  and  _109
REMARK   47  A    between atoms: _109  and  _110
REMARK   48  A    between atoms: _109  and  _112
REMARK   49  A    between atoms: _112  and  _113
REMARK   50  A    between atoms: _116  and  _118
REMARK   51  A    between atoms: _118  and  _119
REMARK   52  A    between atoms: _118  and  _121
REMARK   53  A    between atoms: _124  and  _126
REMARK   54  A    between atoms: _126  and  _127
REMARK   55  A    between atoms: _126  and  _129
REMARK   56  A    between atoms: _129  and  _130
REMARK   57  A    between atoms: _130  and  _131
REMARK   58  A    between atoms: _131  and  _132
REMARK   59  A    between atoms: _141  and  _143
REMARK   60  A    between atoms: _143  and  _144
REMARK   61  A    between atoms: _143  and  _146
REMARK   62  A    between atoms: _146  and  _147
REMARK   63  A    between atoms: _152  and  _154
REMARK   64  A    between atoms: _154  and  _155
REMARK   65  A    between atoms: _154  and  _157
REMARK   66  A    between atoms: _157  and  _158
REMARK   67  A    between atoms: _158  and  _159
REMARK   68  A    between atoms: _162  and  _164
REMARK   69  A    between atoms: _164  and  _165
REMARK   70  A    between atoms: _164  and  _167
REMARK   71  A    between atoms: _167  and  _168
REMARK   72  A    between atoms: _168  and  _169
REMARK   73  A    between atoms: _169  and  _170
REMARK   74  A    between atoms: _170  and  _171
REMARK   75  A    between atoms: _175  and  _177
REMARK   76  A    between atoms: _177  and  _178
REMARK   77  A    between atoms: _180  and  _182
REMARK   78  A    between atoms: _182  and  _183
REMARK   79  A    between atoms: _182  and  _185
REMARK   80  A    between atoms: _188  and  _190
REMARK   81  A    between atoms: _190  and  _191
REMARK   82  A    between atoms: _190  and  _193
REMARK   83  A    between atoms: _193  and  _194
REMARK   84  A    between atoms: _196  and  _198
REMARK   85  A    between atoms: _198  and  _199
REMARK   86  A    between atoms: _198  and  _201
REMARK   87  A    between atoms: _201  and  _202
REMARK   88  A    between atoms: _204  and  _206
REMARK   89  A    between atoms: _206  and  _207
REMARK   90  A    between atoms: _206  and  _209
REMARK   91  A    between atoms: _209  and  _210
REMARK   92  A    between atoms: _216  and  _218
REMARK   93  A    between atoms: _218  and  _219
REMARK   94  A    between atoms: _218  and  _221
REMARK   95  A    between atoms: _221  and  _222
REMARK   96  A    between atoms: _225  and  _227
REMARK   97  A    between atoms: _227  and  _228
REMARK   98  A    between atoms: _227  and  _230
REMARK   99  A    between atoms: _230  and  _231
REMARK  100  A    between atoms: _234  and  _236
REMARK  101  A    between atoms: _236  and  _237
REMARK  102  A    between atoms: _236  and  _239
REMARK  103  A    between atoms: _239  and  _240
REMARK  104  A    between atoms: _243  and  _245
REMARK  105  A    between atoms: _245  and  _246
REMARK  106  A    between atoms: _245  and  _248
REMARK  107  A    between atoms: _248  and  _249
REMARK  108  A    between atoms: _249  and  _250
REMARK  109  A    between atoms: _252  and  _254
REMARK  110  A    between atoms: _254  and  _255
REMARK  111  A    between atoms: _254  and  _257
REMARK  112  A    between atoms: _257  and  _258
REMARK  113  A    between atoms: _264  and  _266
REMARK  114  A    between atoms: _266  and  _267
REMARK  115  A    between atoms: _266  and  _269
REMARK  116  A    between atoms: _271  and  _273
REMARK  117  A    between atoms: _273  and  _274
REMARK  118  A    between atoms: _277  and  _279
REMARK  119  A    between atoms: _279  and  _280
REMARK  120  A    between atoms: _282  and  _284
REMARK  121  A    between atoms: _284  and  _285
REMARK  122  A    between atoms: _284  and  _287
REMARK  123  A    between atoms: _287  and  _288
REMARK  124  A    between atoms: _288  and  _289
REMARK  125  A    between atoms: _292  and  _294
REMARK  126  A    between atoms: _294  and  _295
REMARK  127  A    between atoms: _294  and  _297
REMARK  128  A    between atoms: _297  and  _298
REMARK  129  A    between atoms: _301  and  _303
REMARK  130  A    between atoms: _303  and  _304
REMARK  131  A    between atoms: _307  and  _309
REMARK  132  A    between atoms: _309  and  _310
REMARK  133  A    between atoms: _309  and  _312
REMARK  134  A    between atoms: _312  and  _313
REMARK  135  A    between atoms: _313  and  _436
REMARK  136  A    between atoms: _314  and  _316
REMARK  137  A    between atoms: _316  and  _317
REMARK  138  A    between atoms: _316  and  _319
REMARK  139  A    between atoms: _319  and  _320
REMARK  140  A    between atoms: _320  and  _321
REMARK  141  A    between atoms: _326  and  _328
REMARK  142  A    between atoms: _328  and  _329
REMARK  143  A    between atoms: _331  and  _333
REMARK  144  A    between atoms: _333  and  _334
REMARK  145  A    between atoms: _333  and  _336
REMARK  146  A    between atoms: _336  and  _337
REMARK  147  A    between atoms: _340  and  _342
REMARK  148  A    between atoms: _342  and  _343
REMARK  149  A    between atoms: _342  and  _345
REMARK  150  A    between atoms: _345  and  _346
REMARK  151  A    between atoms: _348  and  _350
REMARK  152  A    between atoms: _350  and  _351
REMARK  153  A    between atoms: _353  and  _355
REMARK  154  A    between atoms: _355  and  _356
REMARK  155  A    between atoms: _358  and  _360
REMARK  156  A    between atoms: _360  and  _361
REMARK  157  A    between atoms: _360  and  _363
REMARK  158  A    between atoms: _363  and  _364
REMARK  159  A    between atoms: _369  and  _371
REMARK  160  A    between atoms: _371  and  _372
REMARK  161  A    between atoms: _371  and  _374
REMARK  162  A    between atoms: _374  and  _375
REMARK  163  A    between atoms: _378  and  _380
REMARK  164  A    between atoms: _380  and  _381
REMARK  165  A    between atoms: _380  and  _383
REMARK  166  A    between atoms: _386  and  _388
REMARK  167  A    between atoms: _388  and  _389
REMARK  168  A    between atoms: _388  and  _391
REMARK  169  A    between atoms: _391  and  _392
REMARK  170  A    between atoms: _394  and  _396
REMARK  171  A    between atoms: _396  and  _397
REMARK  172  A    between atoms: _396  and  _399
REMARK  173  A    between atoms: _399  and  _400
REMARK  174  A    between atoms: _410  and  _412
REMARK  175  A    between atoms: _412  and  _413
REMARK  176  A    between atoms: _415  and  _417
REMARK  177  A    between atoms: _417  and  _418
REMARK  178  A    between atoms: _417  and  _420
REMARK  179  A    between atoms: _420  and  _421
REMARK  180  A    between atoms: _421  and  _422
REMARK  181  A    between atoms: _425  and  _427
REMARK  182  A    between atoms: _427  and  _428
REMARK  183  A    between atoms: _430  and  _432
REMARK  184  A    between atoms: _432  and  _433
REMARK  185  A    between atoms: _432  and  _435
REMARK  186  A    between atoms: _435  and  _436
REMARK  187  A    between atoms: _437  and  _439
REMARK  188  A    between atoms: _439  and  _440
REMARK  189  A    between atoms: _443  and  _445
REMARK  190  A    between atoms: _445  and  _446
REMARK  191  A    between atoms: _445  and  _448
REMARK  192  A    between atoms: _448  and  _449
REMARK  193  A    between atoms: _449  and  _450
REMARK  194  A    between atoms: _450  and  _451
REMARK  195  A    between atoms: _460  and  _462
REMARK  196  A    between atoms: _462  and  _463
REMARK  197  A    between atoms: _462  and  _465
REMARK  198  A    between atoms: _465  and  _466
REMARK  199  A    between atoms: _466  and  _467
REMARK  200  A    between atoms: _467  and  _468
REMARK  201  A    between atoms: _468  and  _469
REMARK  202  A    between atoms: _473  and  _475
REMARK  203  A    between atoms: _475  and  _476
REMARK  204  A    between atoms: _475  and  _478
REMARK  205  A    between atoms: _478  and  _479
REMARK  206  A    between atoms: _484  and  _485
REMARK  207  A    between atoms: _487  and  _489
REMARK  208  A    between atoms: _489  and  _490
REMARK  209  A    between atoms: _492  and  _494
REMARK  210  A    between atoms: _494  and  _495
REMARK  211  A    between atoms: _494  and  _497
REMARK  212  A    between atoms: _497  and  _498
REMARK  213  A    between atoms: _501  and  _503
REMARK  214  A    between atoms: _503  and  _504
REMARK  215  A    between atoms: _503  and  _506
REMARK  216  A    between atoms: _506  and  _507
REMARK  217  A    between atoms: _512  and  _513
REMARK  218  A    between atoms: _515  and  _517
REMARK  219  A    between atoms: _517  and  _518
REMARK  220  A    between atoms: _517  and  _520
REMARK  221  A    between atoms: _520  and  _521
REMARK                            x       y       z     vdW  Elec       q    Type
REMARK                         _______ _______ _______ _____ _____    ______ ____
ROOT
ATOM      1  O   HOH     1      -8.194  12.423  23.771  0.00  0.00    +0.000 OA
ENDROOT
TORSDOF 0
REMARK  Name = ../refined-set-2016/2xc4/2xc4_pocket.pdb
REMARK  221 active torsions:
REMARK  status: ('A' for Active; 'I' for Inactive)
REMARK    1  A    between atoms: _1  and  _5
REMARK    2  A    between atoms: _5  and  _6
REMARK    3  A    between atoms: _5  and  _8
REMARK    4  A    between atoms: _8  and  _9
REMARK    5  A    between atoms: _12  and  _14
REMARK    6  A    between atoms: _14  and  _15
REMARK    7  A    between atoms: _14  and  _17
REMARK    8  A    between atoms: _20  and  _22
REMARK    9  A    between atoms: _22  and  _23
REMARK   10  A    between atoms: _22  and  _25
REMARK   11  A    between atoms: _25  and  _26
REMARK   12  A    between atoms: _31  and  _33
REMARK   13  A    between atoms: _33  and  _34
REMARK   14  A    between atoms: _33  and  _36
REMARK   15  A    between atoms: _36  and  _37
REMARK   16  A    between atoms: _37  and  _38
REMARK   17  A    between atoms: _43  and  _45
REMARK   18  A    between atoms: _45  and  _46
REMARK   19  A    between atoms: _45  and  _48
REMARK   20  A    between atoms: _48  and  _49
REMARK   21  A    between atoms: _52  and  _54
REMARK   22  A    between atoms: _54  and  _55
REMARK   23  A    between atoms: _54  and  _57
REMARK   24  A    between atoms: _57  and  _58
REMARK   25  A    between atoms: _58  and  _59
REMARK   26  A    between atoms: _59  and  _60
REMARK   27  A    between atoms: _60  and  _61
REMARK   28  A    between atoms: _65  and  _67
REMARK   29  A    between atoms: _67  and  _68
REMARK   30  A    between atoms: _67  and  _70
REMARK   31  A    between atoms: _70  and  _71
REMARK   32  A    between atoms: _71  and  _72
REMARK   33  A    between atoms: _75  and  _77
REMARK   34  A    between atoms: _77  and  _78
REMARK   35  A    between atoms: _77  and  _80
REMARK   36  A    between atoms: _80  and  _81
REMARK   37  A    between atoms: _84  and  _86
REMARK   38  A    between atoms: _86  and  _87
REMARK   39  A    between atoms: _86  and  _89
REMARK   40  A    between atoms: _89  and  _90
REMARK   41  A    between atoms: _95  and  _96
REMARK   42  A    between atoms: _98  and  _100
REMARK   43  A    between atoms: _100  and  _101
REMARK   44  A    between atoms: _100  and  _103
REMARK   45  A    between atoms: _103  and  _104
REMARK   46  A    between atoms: _107  and  _109
REMARK   47  A    between atoms: _109  and  _110
REMARK   48  A    between atoms: _109  and  _112
REMARK   49  A    between atoms: _112  and  _113
REMARK   50  A    between atoms: _116  and  _118
REMARK   51  A    between atoms: _118  and  _119
REMARK   52  A    between atoms: _118  and  _121
REMARK   53  A    between atoms: _124  and  _126
REMARK   54  A    between atoms: _126  and  _127
REMARK   55  A    between atoms: _126  and  _129
REMARK   56  A    between atoms: _129  and  _130
REMARK   57  A    between atoms: _130  and  _131
REMARK   58  A    between atoms: _131  and  _132
REMARK   59  A    between atoms: _141  and  _143
REMARK   60  A    between atoms: _143  and  _144
REMARK   61  A    between atoms: _143  and  _146
REMARK   62  A    between atoms: _146  and  _147
REMARK   63  A    between atoms: _152  and  _154
REMARK   64  A    between atoms: _154  and  _155
REMARK   65  A    between atoms: _154  and  _157
REMARK   66  A    between atoms: _157  and  _158
REMARK   67  A    between atoms: _158  and  _159
REMARK   68  A    between atoms: _162  and  _164
REMARK   69  A    between atoms: _164  and  _165
REMARK   70  A    between atoms: _164  and  _167
REMARK   71  A    between atoms: _167  and  _168
REMARK   72  A    between atoms: _168  and  _169
REMARK   73  A    between atoms: _169  and  _170
REMARK   74  A    between atoms: _170  and  _171
REMARK   75  A    between atoms: _175  and  _177
REMARK   76  A    between atoms: _177  and  _178
REMARK   77  A    between atoms: _180  and  _182
REMARK   78  A    between atoms: _182  and  _183
REMARK   79  A    between atoms: _182  and  _185
REMARK   80  A    between atoms: _188  and  _190
REMARK   81  A    between atoms: _190  and  _191
REMARK   82  A    between atoms: _190  and  _193
REMARK   83  A    between atoms: _193  and  _194
REMARK   84  A    between atoms: _196  and  _198
REMARK   85  A    between atoms: _198  and  _199
REMARK   86  A    between atoms: _198  and  _201
REMARK   87  A    between atoms: _201  and  _202
REMARK   88  A    between atoms: _204  and  _206
REMARK   89  A    between atoms: _206  and  _207
REMARK   90  A    between atoms: _206  and  _209
REMARK   91  A    between atoms: _209  and  _210
REMARK   92  A    between atoms: _216  and  _218
REMARK   93  A    between atoms: _218  and  _219
REMARK   94  A    between atoms: _218  and  _221
REMARK   95  A    between atoms: _221  and  _222
REMARK   96  A    between atoms: _225  and  _227
REMARK   97  A    between atoms: _227  and  _228
REMARK   98  A    between atoms: _227  and  _230
REMARK   99  A    between atoms: _230  and  _231
REMARK  100  A    between atoms: _234  and  _236
REMARK  101  A    between atoms: _236  and  _237
REMARK  102  A    between atoms: _236  and  _239
REMARK  103  A    between atoms: _239  and  _240
REMARK  104  A    between atoms: _243  and  _245
REMARK  105  A    between atoms: _245  and  _246
REMARK  106  A    between atoms: _245  and  _248
REMARK  107  A    between atoms: _248  and  _249
REMARK  108  A    between atoms: _249  and  _250
REMARK  109  A    between atoms: _252  and  _254
REMARK  110  A    between atoms: _254  and  _255
REMARK  111  A    between atoms: _254  and  _257
REMARK  112  A    between atoms: _257  and  _258
REMARK  113  A    between atoms: _264  and  _266
REMARK  114  A    between atoms: _266  and  _267
REMARK  115  A    between atoms: _266  and  _269
REMARK  116  A    between atoms: _271  and  _273
REMARK  117  A    between atoms: _273  and  _274
REMARK  118  A    between atoms: _277  and  _279
REMARK  119  A    between atoms: _279  and  _280
REMARK  120  A    between atoms: _282  and  _284
REMARK  121  A    between atoms: _284  and  _285
REMARK  122  A    between atoms: _284  and  _287
REMARK  123  A    between atoms: _287  and  _288
REMARK  124  A    between atoms: _288  and  _289
REMARK  125  A    between atoms: _292  and  _294
REMARK  126  A    between atoms: _294  and  _295
REMARK  127  A    between atoms: _294  and  _297
REMARK  128  A    between atoms: _297  and  _298
REMARK  129  A    between atoms: _301  and  _303
REMARK  130  A    between atoms: _303  and  _304
REMARK  131  A    between atoms: _307  and  _309
REMARK  132  A    between atoms: _309  and  _310
REMARK  133  A    between atoms: _309  and  _312
REMARK  134  A    between atoms: _312  and  _313
REMARK  135  A    between atoms: _313  and  _436
REMARK  136  A    between atoms: _314  and  _316
REMARK  137  A    between atoms: _316  and  _317
REMARK  138  A    between atoms: _316  and  _319
REMARK  139  A    between atoms: _319  and  _320
REMARK  140  A    between atoms: _320  and  _321
REMARK  141  A    between atoms: _326  and  _328
REMARK  142  A    between atoms: _328  and  _329
REMARK  143  A    between atoms: _331  and  _333
REMARK  144  A    between atoms: _333  and  _334
REMARK  145  A    between atoms: _333  and  _336
REMARK  146  A    between atoms: _336  and  _337
REMARK  147  A    between atoms: _340  and  _342
REMARK  148  A    between atoms: _342  and  _343
REMARK  149  A    between atoms: _342  and  _345
REMARK  150  A    between atoms: _345  and  _346
REMARK  151  A    between atoms: _348  and  _350
REMARK  152  A    between atoms: _350  and  _351
REMARK  153  A    between atoms: _353  and  _355
REMARK  154  A    between atoms: _355  and  _356
REMARK  155  A    between atoms: _358  and  _360
REMARK  156  A    between atoms: _360  and  _361
REMARK  157  A    between atoms: _360  and  _363
REMARK  158  A    between atoms: _363  and  _364
REMARK  159  A    between atoms: _369  and  _371
REMARK  160  A    between atoms: _371  and  _372
REMARK  161  A    between atoms: _371  and  _374
REMARK  162  A    between atoms: _374  and  _375
REMARK  163  A    between atoms: _378  and  _380
REMARK  164  A    between atoms: _380  and  _381
REMARK  165  A    between atoms: _380  and  _383
REMARK  166  A    between atoms: _386  and  _388
REMARK  167  A    between atoms: _388  and  _389
REMARK  168  A    between atoms: _388  and  _391
REMARK  169  A    between atoms: _391  and  _392
REMARK  170  A    between atoms: _394  and  _396
REMARK  171  A    between atoms: _396  and  _397
REMARK  172  A    between atoms: _396  and  _399
REMARK  173  A    between atoms: _399  and  _400
REMARK  174  A    between atoms: _410  and  _412
REMARK  175  A    between atoms: _412  and  _413
REMARK  176  A    between atoms: _415  and  _417
REMARK  177  A    between atoms: _417  and  _418
REMARK  178  A    between atoms: _417  and  _420
REMARK  179  A    between atoms: _420  and  _421
REMARK  180  A    between atoms: _421  and  _422
REMARK  181  A    between atoms: _425  and  _427
REMARK  182  A    between atoms: _427  and  _428
REMARK  183  A    between atoms: _430  and  _432
REMARK  184  A    between atoms: _432  and  _433
REMARK  185  A    between atoms: _432  and  _435
REMARK  186  A    between atoms: _435  and  _436
REMARK  187  A    between atoms: _437  and  _439
REMARK  188  A    between atoms: _439  and  _440
REMARK  189  A    between atoms: _443  and  _445
REMARK  190  A    between atoms: _445  and  _446
REMARK  191  A    between atoms: _445  and  _448
REMARK  192  A    between atoms: _448  and  _449
REMARK  193  A    between atoms: _449  and  _450
REMARK  194  A    between atoms: _450  and  _451
REMARK  195  A    between atoms: _460  and  _462
REMARK  196  A    between atoms: _462  and  _463
REMARK  197  A    between atoms: _462  and  _465
REMARK  198  A    between atoms: _465  and  _466
REMARK  199  A    between atoms: _466  and  _467
REMARK  200  A    between atoms: _467  and  _468
REMARK  201  A    between atoms: _468  and  _469
REMARK  202  A    between atoms: _473  and  _475
REMARK  203  A    between atoms: _475  and  _476
REMARK  204  A    between atoms: _475  and  _478
REMARK  205  A    between atoms: _478  and  _479
REMARK  206  A    between atoms: _484  and  _485
REMARK  207  A    between atoms: _487  and  _489
REMARK  208  A    between atoms: _489  and  _490
REMARK  209  A    between atoms: _492  and  _494
REMARK  210  A    between atoms: _494  and  _495
REMARK  211  A    between atoms: _494  and  _497
REMARK  212  A    between atoms: _497  and  _498
REMARK  213  A    between atoms: _501  and  _503
REMARK  214  A    between atoms: _503  and  _504
REMARK  215  A    between atoms: _503  and  _506
REMARK  216  A    between atoms: _506  and  _507
REMARK  217  A    between atoms: _512  and  _513
REMARK  218  A    between atoms: _515  and  _517
REMARK  219  A    between atoms: _517  and  _518
REMARK  220  A    between atoms: _517  and  _520
REMARK  221  A    between atoms: _520  and  _521
REMARK                            x       y       z     vdW  Elec       q    Type
REMARK                         _______ _______ _______ _____ _____    ______ ____
ROOT
ATOM      1  O   HOH     1     -11.218  12.135  23.914  0.00  0.00    +0.000 OA
ENDROOT
TORSDOF 0
REMARK  Name = ../refined-set-2016/2xc4/2xc4_pocket.pdb
REMARK  221 active torsions:
REMARK  status: ('A' for Active; 'I' for Inactive)
REMARK    1  A    between atoms: _1  and  _5
REMARK    2  A    between atoms: _5  and  _6
REMARK    3  A    between atoms: _5  and  _8
REMARK    4  A    between atoms: _8  and  _9
REMARK    5  A    between atoms: _12  and  _14
REMARK    6  A    between atoms: _14  and  _15
REMARK    7  A    between atoms: _14  and  _17
REMARK    8  A    between atoms: _20  and  _22
REMARK    9  A    between atoms: _22  and  _23
REMARK   10  A    between atoms: _22  and  _25
REMARK   11  A    between atoms: _25  and  _26
REMARK   12  A    between atoms: _31  and  _33
REMARK   13  A    between atoms: _33  and  _34
REMARK   14  A    between atoms: _33  and  _36
REMARK   15  A    between atoms: _36  and  _37
REMARK   16  A    between atoms: _37  and  _38
REMARK   17  A    between atoms: _43  and  _45
REMARK   18  A    between atoms: _45  and  _46
REMARK   19  A    between atoms: _45  and  _48
REMARK   20  A    between atoms: _48  and  _49
REMARK   21  A    between atoms: _52  and  _54
REMARK   22  A    between atoms: _54  and  _55
REMARK   23  A    between atoms: _54  and  _57
REMARK   24  A    between atoms: _57  and  _58
REMARK   25  A    between atoms: _58  and  _59
REMARK   26  A    between atoms: _59  and  _60
REMARK   27  A    between atoms: _60  and  _61
REMARK   28  A    between atoms: _65  and  _67
REMARK   29  A    between atoms: _67  and  _68
REMARK   30  A    between atoms: _67  and  _70
REMARK   31  A    between atoms: _70  and  _71
REMARK   32  A    between atoms: _71  and  _72
REMARK   33  A    between atoms: _75  and  _77
REMARK   34  A    between atoms: _77  and  _78
REMARK   35  A    between atoms: _77  and  _80
REMARK   36  A    between atoms: _80  and  _81
REMARK   37  A    between atoms: _84  and  _86
REMARK   38  A    between atoms: _86  and  _87
REMARK   39  A    between atoms: _86  and  _89
REMARK   40  A    between atoms: _89  and  _90
REMARK   41  A    between atoms: _95  and  _96
REMARK   42  A    between atoms: _98  and  _100
REMARK   43  A    between atoms: _100  and  _101
REMARK   44  A    between atoms: _100  and  _103
REMARK   45  A    between atoms: _103  and  _104
REMARK   46  A    between atoms: _107  and  _109
REMARK   47  A    between atoms: _109  and  _110
REMARK   48  A    between atoms: _109  and  _112
REMARK   49  A    between atoms: _112  and  _113
REMARK   50  A    between atoms: _116  and  _118
REMARK   51  A    between atoms: _118  and  _119
REMARK   52  A    between atoms: _118  and  _121
REMARK   53  A    between atoms: _124  and  _126
REMARK   54  A    between atoms: _126  and  _127
REMARK   55  A    between atoms: _126  and  _129
REMARK   56  A    between atoms: _129  and  _130
REMARK   57  A    between atoms: _130  and  _131
REMARK   58  A    between atoms: _131  and  _132
REMARK   59  A    between atoms: _141  and  _143
REMARK   60  A    between atoms: _143  and  _144
REMARK   61  A    between atoms: _143  and  _146
REMARK   62  A    between atoms: _146  and  _147
REMARK   63  A    between atoms: _152  and  _154
REMARK   64  A    between atoms: _154  and  _155
REMARK   65  A    between atoms: _154  and  _157
REMARK   66  A    between atoms: _157  and  _158
REMARK   67  A    between atoms: _158  and  _159
REMARK   68  A    between atoms: _162  and  _164
REMARK   69  A    between atoms: _164  and  _165
REMARK   70  A    between atoms: _164  and  _167
REMARK   71  A    between atoms: _167  and  _168
REMARK   72  A    between atoms: _168  and  _169
REMARK   73  A    between atoms: _169  and  _170
REMARK   74  A    between atoms: _170  and  _171
REMARK   75  A    between atoms: _175  and  _177
REMARK   76  A    between atoms: _177  and  _178
REMARK   77  A    between atoms: _180  and  _182
REMARK   78  A    between atoms: _182  and  _183
REMARK   79  A    between atoms: _182  and  _185
REMARK   80  A    between atoms: _188  and  _190
REMARK   81  A    between atoms: _190  and  _191
REMARK   82  A    between atoms: _190  and  _193
REMARK   83  A    between atoms: _193  and  _194
REMARK   84  A    between atoms: _196  and  _198
REMARK   85  A    between atoms: _198  and  _199
REMARK   86  A    between atoms: _198  and  _201
REMARK   87  A    between atoms: _201  and  _202
REMARK   88  A    between atoms: _204  and  _206
REMARK   89  A    between atoms: _206  and  _207
REMARK   90  A    between atoms: _206  and  _209
REMARK   91  A    between atoms: _209  and  _210
REMARK   92  A    between atoms: _216  and  _218
REMARK   93  A    between atoms: _218  and  _219
REMARK   94  A    between atoms: _218  and  _221
REMARK   95  A    between atoms: _221  and  _222
REMARK   96  A    between atoms: _225  and  _227
REMARK   97  A    between atoms: _227  and  _228
REMARK   98  A    between atoms: _227  and  _230
REMARK   99  A    between atoms: _230  and  _231
REMARK  100  A    between atoms: _234  and  _236
REMARK  101  A    between atoms: _236  and  _237
REMARK  102  A    between atoms: _236  and  _239
REMARK  103  A    between atoms: _239  and  _240
REMARK  104  A    between atoms: _243  and  _245
REMARK  105  A    between atoms: _245  and  _246
REMARK  106  A    between atoms: _245  and  _248
REMARK  107  A    between atoms: _248  and  _249
REMARK  108  A    between atoms: _249  and  _250
REMARK  109  A    between atoms: _252  and  _254
REMARK  110  A    between atoms: _254  and  _255
REMARK  111  A    between atoms: _254  and  _257
REMARK  112  A    between atoms: _257  and  _258
REMARK  113  A    between atoms: _264  and  _266
REMARK  114  A    between atoms: _266  and  _267
REMARK  115  A    between atoms: _266  and  _269
REMARK  116  A    between atoms: _271  and  _273
REMARK  117  A    between atoms: _273  and  _274
REMARK  118  A    between atoms: _277  and  _279
REMARK  119  A    between atoms: _279  and  _280
REMARK  120  A    between atoms: _282  and  _284
REMARK  121  A    between atoms: _284  and  _285
REMARK  122  A    between atoms: _284  and  _287
REMARK  123  A    between atoms: _287  and  _288
REMARK  124  A    between atoms: _288  and  _289
REMARK  125  A    between atoms: _292  and  _294
REMARK  126  A    between atoms: _294  and  _295
REMARK  127  A    between atoms: _294  and  _297
REMARK  128  A    between atoms: _297  and  _298
REMARK  129  A    between atoms: _301  and  _303
REMARK  130  A    between atoms: _303  and  _304
REMARK  131  A    between atoms: _307  and  _309
REMARK  132  A    between atoms: _309  and  _310
REMARK  133  A    between atoms: _309  and  _312
REMARK  134  A    between atoms: _312  and  _313
REMARK  135  A    between atoms: _313  and  _436
REMARK  136  A    between atoms: _314  and  _316
REMARK  137  A    between atoms: _316  and  _317
REMARK  138  A    between atoms: _316  and  _319
REMARK  139  A    between atoms: _319  and  _320
REMARK  140  A    between atoms: _320  and  _321
REMARK  141  A    between atoms: _326  and  _328
REMARK  142  A    between atoms: _328  and  _329
REMARK  143  A    between atoms: _331  and  _333
REMARK  144  A    between atoms: _333  and  _334
REMARK  145  A    between atoms: _333  and  _336
REMARK  146  A    between atoms: _336  and  _337
REMARK  147  A    between atoms: _340  and  _342
REMARK  148  A    between atoms: _342  and  _343
REMARK  149  A    between atoms: _342  and  _345
REMARK  150  A    between atoms: _345  and  _346
REMARK  151  A    between atoms: _348  and  _350
REMARK  152  A    between atoms: _350  and  _351
REMARK  153  A    between atoms: _353  and  _355
REMARK  154  A    between atoms: _355  and  _356
REMARK  155  A    between atoms: _358  and  _360
REMARK  156  A    between atoms: _360  and  _361
REMARK  157  A    between atoms: _360  and  _363
REMARK  158  A    between atoms: _363  and  _364
REMARK  159  A    between atoms: _369  and  _371
REMARK  160  A    between atoms: _371  and  _372
REMARK  161  A    between atoms: _371  and  _374
REMARK  162  A    between atoms: _374  and  _375
REMARK  163  A    between atoms: _378  and  _380
REMARK  164  A    between atoms: _380  and  _381
REMARK  165  A    between atoms: _380  and  _383
REMARK  166  A    between atoms: _386  and  _388
REMARK  167  A    between atoms: _388  and  _389
REMARK  168  A    between atoms: _388  and  _391
REMARK  169  A    between atoms: _391  and  _392
REMARK  170  A    between atoms: _394  and  _396
REMARK  171  A    between atoms: _396  and  _397
REMARK  172  A    between atoms: _396  and  _399
REMARK  173  A    between atoms: _399  and  _400
REMARK  174  A    between atoms: _410  and  _412
REMARK  175  A    between atoms: _412  and  _413
REMARK  176  A    between atoms: _415  and  _417
REMARK  177  A    between atoms: _417  and  _418
REMARK  178  A    between atoms: _417  and  _420
REMARK  179  A    between atoms: _420  and  _421
REMARK  180  A    between atoms: _421  and  _422
REMARK  181  A    between atoms: _425  and  _427
REMARK  182  A    between atoms: _427  and  _428
REMARK  183  A    between atoms: _430  and  _432
REMARK  184  A    between atoms: _432  and  _433
REMARK  185  A    between atoms: _432  and  _435
REMARK  186  A    between atoms: _435  and  _436
REMARK  187  A    between atoms: _437  and  _439
REMARK  188  A    between atoms: _439  and  _440
REMARK  189  A    between atoms: _443  and  _445
REMARK  190  A    between atoms: _445  and  _446
REMARK  191  A    between atoms: _445  and  _448
REMARK  192  A    between atoms: _448  and  _449
REMARK  193  A    between atoms: _449  and  _450
REMARK  194  A    between atoms: _450  and  _451
REMARK  195  A    between atoms: _460  and  _462
REMARK  196  A    between atoms: _462  and  _463
REMARK  197  A    between atoms: _462  and  _465
REMARK  198  A    between atoms: _465  and  _466
REMARK  199  A    between atoms: _466  and  _467
REMARK  200  A    between atoms: _467  and  _468
REMARK  201  A    between atoms: _468  and  _469
REMARK  202  A    between atoms: _473  and  _475
REMARK  203  A    between atoms: _475  and  _476
REMARK  204  A    between atoms: _475  and  _478
REMARK  205  A    between atoms: _478  and  _479
REMARK  206  A    between atoms: _484  and  _485
REMARK  207  A    between atoms: _487  and  _489
REMARK  208  A    between atoms: _489  and  _490
REMARK  209  A    between atoms: _492  and  _494
REMARK  210  A    between atoms: _494  and  _495
REMARK  211  A    between atoms: _494  and  _497
REMARK  212  A    between atoms: _497  and  _498
REMARK  213  A    between atoms: _501  and  _503
REMARK  214  A    between atoms: _503  and  _504
REMARK  215  A    between atoms: _503  and  _506
REMARK  216  A    between atoms: _506  and  _507
REMARK  217  A    between atoms: _512  and  _513
REMARK  218  A    between atoms: _515  and  _517
REMARK  219  A    between atoms: _517  and  _518
REMARK  220  A    between atoms: _517  and  _520
REMARK  221  A    between atoms: _520  and  _521
REMARK                            x       y       z     vdW  Elec       q    Type
REMARK                         _______ _______ _______ _____ _____    ______ ____
ROOT
ATOM      1  O   HOH     1      -6.401   6.081  32.377  0.00  0.00    +0.000 OA
ENDROOT
TORSDOF 0
REMARK  Name = ../refined-set-2016/2xc4/2xc4_pocket.pdb
REMARK  221 active torsions:
REMARK  status: ('A' for Active; 'I' for Inactive)
REMARK    1  A    between atoms: _1  and  _5
REMARK    2  A    between atoms: _5  and  _6
REMARK    3  A    between atoms: _5  and  _8
REMARK    4  A    between atoms: _8  and  _9
REMARK    5  A    between atoms: _12  and  _14
REMARK    6  A    between atoms: _14  and  _15
REMARK    7  A    between atoms: _14  and  _17
REMARK    8  A    between atoms: _20  and  _22
REMARK    9  A    between atoms: _22  and  _23
REMARK   10  A    between atoms: _22  and  _25
REMARK   11  A    between atoms: _25  and  _26
REMARK   12  A    between atoms: _31  and  _33
REMARK   13  A    between atoms: _33  and  _34
REMARK   14  A    between atoms: _33  and  _36
REMARK   15  A    between atoms: _36  and  _37
REMARK   16  A    between atoms: _37  and  _38
REMARK   17  A    between atoms: _43  and  _45
REMARK   18  A    between atoms: _45  and  _46
REMARK   19  A    between atoms: _45  and  _48
REMARK   20  A    between atoms: _48  and  _49
REMARK   21  A    between atoms: _52  and  _54
REMARK   22  A    between atoms: _54  and  _55
REMARK   23  A    between atoms: _54  and  _57
REMARK   24  A    between atoms: _57  and  _58
REMARK   25  A    between atoms: _58  and  _59
REMARK   26  A    between atoms: _59  and  _60
REMARK   27  A    between atoms: _60  and  _61
REMARK   28  A    between atoms: _65  and  _67
REMARK   29  A    between atoms: _67  and  _68
REMARK   30  A    between atoms: _67  and  _70
REMARK   31  A    between atoms: _70  and  _71
REMARK   32  A    between atoms: _71  and  _72
REMARK   33  A    between atoms: _75  and  _77
REMARK   34  A    between atoms: _77  and  _78
REMARK   35  A    between atoms: _77  and  _80
REMARK   36  A    between atoms: _80  and  _81
REMARK   37  A    between atoms: _84  and  _86
REMARK   38  A    between atoms: _86  and  _87
REMARK   39  A    between atoms: _86  and  _89
REMARK   40  A    between atoms: _89  and  _90
REMARK   41  A    between atoms: _95  and  _96
REMARK   42  A    between atoms: _98  and  _100
REMARK   43  A    between atoms: _100  and  _101
REMARK   44  A    between atoms: _100  and  _103
REMARK   45  A    between atoms: _103  and  _104
REMARK   46  A    between atoms: _107  and  _109
REMARK   47  A    between atoms: _109  and  _110
REMARK   48  A    between atoms: _109  and  _112
REMARK   49  A    between atoms: _112  and  _113
REMARK   50  A    between atoms: _116  and  _118
REMARK   51  A    between atoms: _118  and  _119
REMARK   52  A    between atoms: _118  and  _121
REMARK   53  A    between atoms: _124  and  _126
REMARK   54  A    between atoms: _126  and  _127
REMARK   55  A    between atoms: _126  and  _129
REMARK   56  A    between atoms: _129  and  _130
REMARK   57  A    between atoms: _130  and  _131
REMARK   58  A    between atoms: _131  and  _132
REMARK   59  A    between atoms: _141  and  _143
REMARK   60  A    between atoms: _143  and  _144
REMARK   61  A    between atoms: _143  and  _146
REMARK   62  A    between atoms: _146  and  _147
REMARK   63  A    between atoms: _152  and  _154
REMARK   64  A    between atoms: _154  and  _155
REMARK   65  A    between atoms: _154  and  _157
REMARK   66  A    between atoms: _157  and  _158
REMARK   67  A    between atoms: _158  and  _159
REMARK   68  A    between atoms: _162  and  _164
REMARK   69  A    between atoms: _164  and  _165
REMARK   70  A    between atoms: _164  and  _167
REMARK   71  A    between atoms: _167  and  _168
REMARK   72  A    between atoms: _168  and  _169
REMARK   73  A    between atoms: _169  and  _170
REMARK   74  A    between atoms: _170  and  _171
REMARK   75  A    between atoms: _175  and  _177
REMARK   76  A    between atoms: _177  and  _178
REMARK   77  A    between atoms: _180  and  _182
REMARK   78  A    between atoms: _182  and  _183
REMARK   79  A    between atoms: _182  and  _185
REMARK   80  A    between atoms: _188  and  _190
REMARK   81  A    between atoms: _190  and  _191
REMARK   82  A    between atoms: _190  and  _193
REMARK   83  A    between atoms: _193  and  _194
REMARK   84  A    between atoms: _196  and  _198
REMARK   85  A    between atoms: _198  and  _199
REMARK   86  A    between atoms: _198  and  _201
REMARK   87  A    between atoms: _201  and  _202
REMARK   88  A    between atoms: _204  and  _206
REMARK   89  A    between atoms: _206  and  _207
REMARK   90  A    between atoms: _206  and  _209
REMARK   91  A    between atoms: _209  and  _210
REMARK   92  A    between atoms: _216  and  _218
REMARK   93  A    between atoms: _218  and  _219
REMARK   94  A    between atoms: _218  and  _221
REMARK   95  A    between atoms: _221  and  _222
REMARK   96  A    between atoms: _225  and  _227
REMARK   97  A    between atoms: _227  and  _228
REMARK   98  A    between atoms: _227  and  _230
REMARK   99  A    between atoms: _230  and  _231
REMARK  100  A    between atoms: _234  and  _236
REMARK  101  A    between atoms: _236  and  _237
REMARK  102  A    between atoms: _236  and  _239
REMARK  103  A    between atoms: _239  and  _240
REMARK  104  A    between atoms: _243  and  _245
REMARK  105  A    between atoms: _245  and  _246
REMARK  106  A    between atoms: _245  and  _248
REMARK  107  A    between atoms: _248  and  _249
REMARK  108  A    between atoms: _249  and  _250
REMARK  109  A    between atoms: _252  and  _254
REMARK  110  A    between atoms: _254  and  _255
REMARK  111  A    between atoms: _254  and  _257
REMARK  112  A    between atoms: _257  and  _258
REMARK  113  A    between atoms: _264  and  _266
REMARK  114  A    between atoms: _266  and  _267
REMARK  115  A    between atoms: _266  and  _269
REMARK  116  A    between atoms: _271  and  _273
REMARK  117  A    between atoms: _273  and  _274
REMARK  118  A    between atoms: _277  and  _279
REMARK  119  A    between atoms: _279  and  _280
REMARK  120  A    between atoms: _282  and  _284
REMARK  121  A    between atoms: _284  and  _285
REMARK  122  A    between atoms: _284  and  _287
REMARK  123  A    between atoms: _287  and  _288
REMARK  124  A    between atoms: _288  and  _289
REMARK  125  A    between atoms: _292  and  _294
REMARK  126  A    between atoms: _294  and  _295
REMARK  127  A    between atoms: _294  and  _297
REMARK  128  A    between atoms: _297  and  _298
REMARK  129  A    between atoms: _301  and  _303
REMARK  130  A    between atoms: _303  and  _304
REMARK  131  A    between atoms: _307  and  _309
REMARK  132  A    between atoms: _309  and  _310
REMARK  133  A    between atoms: _309  and  _312
REMARK  134  A    between atoms: _312  and  _313
REMARK  135  A    between atoms: _313  and  _436
REMARK  136  A    between atoms: _314  and  _316
REMARK  137  A    between atoms: _316  and  _317
REMARK  138  A    between atoms: _316  and  _319
REMARK  139  A    between atoms: _319  and  _320
REMARK  140  A    between atoms: _320  and  _321
REMARK  141  A    between atoms: _326  and  _328
REMARK  142  A    between atoms: _328  and  _329
REMARK  143  A    between atoms: _331  and  _333
REMARK  144  A    between atoms: _333  and  _334
REMARK  145  A    between atoms: _333  and  _336
REMARK  146  A    between atoms: _336  and  _337
REMARK  147  A    between atoms: _340  and  _342
REMARK  148  A    between atoms: _342  and  _343
REMARK  149  A    between atoms: _342  and  _345
REMARK  150  A    between atoms: _345  and  _346
REMARK  151  A    between atoms: _348  and  _350
REMARK  152  A    between atoms: _350  and  _351
REMARK  153  A    between atoms: _353  and  _355
REMARK  154  A    between atoms: _355  and  _356
REMARK  155  A    between atoms: _358  and  _360
REMARK  156  A    between atoms: _360  and  _361
REMARK  157  A    between atoms: _360  and  _363
REMARK  158  A    between atoms: _363  and  _364
REMARK  159  A    between atoms: _369  and  _371
REMARK  160  A    between atoms: _371  and  _372
REMARK  161  A    between atoms: _371  and  _374
REMARK  162  A    between atoms: _374  and  _375
REMARK  163  A    between atoms: _378  and  _380
REMARK  164  A    between atoms: _380  and  _381
REMARK  165  A    between atoms: _380  and  _383
REMARK  166  A    between atoms: _386  and  _388
REMARK  167  A    between atoms: _388  and  _389
REMARK  168  A    between atoms: _388  and  _391
REMARK  169  A    between atoms: _391  and  _392
REMARK  170  A    between atoms: _394  and  _396
REMARK  171  A    between atoms: _396  and  _397
REMARK  172  A    between atoms: _396  and  _399
REMARK  173  A    between atoms: _399  and  _400
REMARK  174  A    between atoms: _410  and  _412
REMARK  175  A    between atoms: _412  and  _413
REMARK  176  A    between atoms: _415  and  _417
REMARK  177  A    between atoms: _417  and  _418
REMARK  178  A    between atoms: _417  and  _420
REMARK  179  A    between atoms: _420  and  _421
REMARK  180  A    between atoms: _421  and  _422
REMARK  181  A    between atoms: _425  and  _427
REMARK  182  A    between atoms: _427  and  _428
REMARK  183  A    between atoms: _430  and  _432
REMARK  184  A    between atoms: _432  and  _433
REMARK  185  A    between atoms: _432  and  _435
REMARK  186  A    between atoms: _435  and  _436
REMARK  187  A    between atoms: _437  and  _439
REMARK  188  A    between atoms: _439  and  _440
REMARK  189  A    between atoms: _443  and  _445
REMARK  190  A    between atoms: _445  and  _446
REMARK  191  A    between atoms: _445  and  _448
REMARK  192  A    between atoms: _448  and  _449
REMARK  193  A    between atoms: _449  and  _450
REMARK  194  A    between atoms: _450  and  _451
REMARK  195  A    between atoms: _460  and  _462
REMARK  196  A    between atoms: _462  and  _463
REMARK  197  A    between atoms: _462  and  _465
REMARK  198  A    between atoms: _465  and  _466
REMARK  199  A    between atoms: _466  and  _467
REMARK  200  A    between atoms: _467  and  _468
REMARK  201  A    between atoms: _468  and  _469
REMARK  202  A    between atoms: _473  and  _475
REMARK  203  A    between atoms: _475  and  _476
REMARK  204  A    between atoms: _475  and  _478
REMARK  205  A    between atoms: _478  and  _479
REMARK  206  A    between atoms: _484  and  _485
REMARK  207  A    between atoms: _487  and  _489
REMARK  208  A    between atoms: _489  and  _490
REMARK  209  A    between atoms: _492  and  _494
REMARK  210  A    between atoms: _494  and  _495
REMARK  211  A    between atoms: _494  and  _497
REMARK  212  A    between atoms: _497  and  _498
REMARK  213  A    between atoms: _501  and  _503
REMARK  214  A    between atoms: _503  and  _504
REMARK  215  A    between atoms: _503  and  _506
REMARK  216  A    between atoms: _506  and  _507
REMARK  217  A    between atoms: _512  and  _513
REMARK  218  A    between atoms: _515  and  _517
REMARK  219  A    between atoms: _517  and  _518
REMARK  220  A    between atoms: _517  and  _520
REMARK  221  A    between atoms: _520  and  _521
REMARK                            x       y       z     vdW  Elec       q    Type
REMARK                         _______ _______ _______ _____ _____    ______ ____
ROOT
ATOM      1  O   HOH     1      -7.712   5.104  26.585  0.00  0.00    +0.000 OA
ENDROOT
TORSDOF 0
REMARK  Name = ../refined-set-2016/2xc4/2xc4_pocket.pdb
REMARK  221 active torsions:
REMARK  status: ('A' for Active; 'I' for Inactive)
REMARK    1  A    between atoms: _1  and  _5
REMARK    2  A    between atoms: _5  and  _6
REMARK    3  A    between atoms: _5  and  _8
REMARK    4  A    between atoms: _8  and  _9
REMARK    5  A    between atoms: _12  and  _14
REMARK    6  A    between atoms: _14  and  _15
REMARK    7  A    between atoms: _14  and  _17
REMARK    8  A    between atoms: _20  and  _22
REMARK    9  A    between atoms: _22  and  _23
REMARK   10  A    between atoms: _22  and  _25
REMARK   11  A    between atoms: _25  and  _26
REMARK   12  A    between atoms: _31  and  _33
REMARK   13  A    between atoms: _33  and  _34
REMARK   14  A    between atoms: _33  and  _36
REMARK   15  A    between atoms: _36  and  _37
REMARK   16  A    between atoms: _37  and  _38
REMARK   17  A    between atoms: _43  and  _45
REMARK   18  A    between atoms: _45  and  _46
REMARK   19  A    between atoms: _45  and  _48
REMARK   20  A    between atoms: _48  and  _49
REMARK   21  A    between atoms: _52  and  _54
REMARK   22  A    between atoms: _54  and  _55
REMARK   23  A    between atoms: _54  and  _57
REMARK   24  A    between atoms: _57  and  _58
REMARK   25  A    between atoms: _58  and  _59
REMARK   26  A    between atoms: _59  and  _60
REMARK   27  A    between atoms: _60  and  _61
REMARK   28  A    between atoms: _65  and  _67
REMARK   29  A    between atoms: _67  and  _68
REMARK   30  A    between atoms: _67  and  _70
REMARK   31  A    between atoms: _70  and  _71
REMARK   32  A    between atoms: _71  and  _72
REMARK   33  A    between atoms: _75  and  _77
REMARK   34  A    between atoms: _77  and  _78
REMARK   35  A    between atoms: _77  and  _80
REMARK   36  A    between atoms: _80  and  _81
REMARK   37  A    between atoms: _84  and  _86
REMARK   38  A    between atoms: _86  and  _87
REMARK   39  A    between atoms: _86  and  _89
REMARK   40  A    between atoms: _89  and  _90
REMARK   41  A    between atoms: _95  and  _96
REMARK   42  A    between atoms: _98  and  _100
REMARK   43  A    between atoms: _100  and  _101
REMARK   44  A    between atoms: _100  and  _103
REMARK   45  A    between atoms: _103  and  _104
REMARK   46  A    between atoms: _107  and  _109
REMARK   47  A    between atoms: _109  and  _110
REMARK   48  A    between atoms: _109  and  _112
REMARK   49  A    between atoms: _112  and  _113
REMARK   50  A    between atoms: _116  and  _118
REMARK   51  A    between atoms: _118  and  _119
REMARK   52  A    between atoms: _118  and  _121
REMARK   53  A    between atoms: _124  and  _126
REMARK   54  A    between atoms: _126  and  _127
REMARK   55  A    between atoms: _126  and  _129
REMARK   56  A    between atoms: _129  and  _130
REMARK   57  A    between atoms: _130  and  _131
REMARK   58  A    between atoms: _131  and  _132
REMARK   59  A    between atoms: _141  and  _143
REMARK   60  A    between atoms: _143  and  _144
REMARK   61  A    between atoms: _143  and  _146
REMARK   62  A    between atoms: _146  and  _147
REMARK   63  A    between atoms: _152  and  _154
REMARK   64  A    between atoms: _154  and  _155
REMARK   65  A    between atoms: _154  and  _157
REMARK   66  A    between atoms: _157  and  _158
REMARK   67  A    between atoms: _158  and  _159
REMARK   68  A    between atoms: _162  and  _164
REMARK   69  A    between atoms: _164  and  _165
REMARK   70  A    between atoms: _164  and  _167
REMARK   71  A    between atoms: _167  and  _168
REMARK   72  A    between atoms: _168  and  _169
REMARK   73  A    between atoms: _169  and  _170
REMARK   74  A    between atoms: _170  and  _171
REMARK   75  A    between atoms: _175  and  _177
REMARK   76  A    between atoms: _177  and  _178
REMARK   77  A    between atoms: _180  and  _182
REMARK   78  A    between atoms: _182  and  _183
REMARK   79  A    between atoms: _182  and  _185
REMARK   80  A    between atoms: _188  and  _190
REMARK   81  A    between atoms: _190  and  _191
REMARK   82  A    between atoms: _190  and  _193
REMARK   83  A    between atoms: _193  and  _194
REMARK   84  A    between atoms: _196  and  _198
REMARK   85  A    between atoms: _198  and  _199
REMARK   86  A    between atoms: _198  and  _201
REMARK   87  A    between atoms: _201  and  _202
REMARK   88  A    between atoms: _204  and  _206
REMARK   89  A    between atoms: _206  and  _207
REMARK   90  A    between atoms: _206  and  _209
REMARK   91  A    between atoms: _209  and  _210
REMARK   92  A    between atoms: _216  and  _218
REMARK   93  A    between atoms: _218  and  _219
REMARK   94  A    between atoms: _218  and  _221
REMARK   95  A    between atoms: _221  and  _222
REMARK   96  A    between atoms: _225  and  _227
REMARK   97  A    between atoms: _227  and  _228
REMARK   98  A    between atoms: _227  and  _230
REMARK   99  A    between atoms: _230  and  _231
REMARK  100  A    between atoms: _234  and  _236
REMARK  101  A    between atoms: _236  and  _237
REMARK  102  A    between atoms: _236  and  _239
REMARK  103  A    between atoms: _239  and  _240
REMARK  104  A    between atoms: _243  and  _245
REMARK  105  A    between atoms: _245  and  _246
REMARK  106  A    between atoms: _245  and  _248
REMARK  107  A    between atoms: _248  and  _249
REMARK  108  A    between atoms: _249  and  _250
REMARK  109  A    between atoms: _252  and  _254
REMARK  110  A    between atoms: _254  and  _255
REMARK  111  A    between atoms: _254  and  _257
REMARK  112  A    between atoms: _257  and  _258
REMARK  113  A    between atoms: _264  and  _266
REMARK  114  A    between atoms: _266  and  _267
REMARK  115  A    between atoms: _266  and  _269
REMARK  116  A    between atoms: _271  and  _273
REMARK  117  A    between atoms: _273  and  _274
REMARK  118  A    between atoms: _277  and  _279
REMARK  119  A    between atoms: _279  and  _280
REMARK  120  A    between atoms: _282  and  _284
REMARK  121  A    between atoms: _284  and  _285
REMARK  122  A    between atoms: _284  and  _287
REMARK  123  A    between atoms: _287  and  _288
REMARK  124  A    between atoms: _288  and  _289
REMARK  125  A    between atoms: _292  and  _294
REMARK  126  A    between atoms: _294  and  _295
REMARK  127  A    between atoms: _294  and  _297
REMARK  128  A    between atoms: _297  and  _298
REMARK  129  A    between atoms: _301  and  _303
REMARK  130  A    between atoms: _303  and  _304
REMARK  131  A    between atoms: _307  and  _309
REMARK  132  A    between atoms: _309  and  _310
REMARK  133  A    between atoms: _309  and  _312
REMARK  134  A    between atoms: _312  and  _313
REMARK  135  A    between atoms: _313  and  _436
REMARK  136  A    between atoms: _314  and  _316
REMARK  137  A    between atoms: _316  and  _317
REMARK  138  A    between atoms: _316  and  _319
REMARK  139  A    between atoms: _319  and  _320
REMARK  140  A    between atoms: _320  and  _321
REMARK  141  A    between atoms: _326  and  _328
REMARK  142  A    between atoms: _328  and  _329
REMARK  143  A    between atoms: _331  and  _333
REMARK  144  A    between atoms: _333  and  _334
REMARK  145  A    between atoms: _333  and  _336
REMARK  146  A    between atoms: _336  and  _337
REMARK  147  A    between atoms: _340  and  _342
REMARK  148  A    between atoms: _342  and  _343
REMARK  149  A    between atoms: _342  and  _345
REMARK  150  A    between atoms: _345  and  _346
REMARK  151  A    between atoms: _348  and  _350
REMARK  152  A    between atoms: _350  and  _351
REMARK  153  A    between atoms: _353  and  _355
REMARK  154  A    between atoms: _355  and  _356
REMARK  155  A    between atoms: _358  and  _360
REMARK  156  A    between atoms: _360  and  _361
REMARK  157  A    between atoms: _360  and  _363
REMARK  158  A    between atoms: _363  and  _364
REMARK  159  A    between atoms: _369  and  _371
REMARK  160  A    between atoms: _371  and  _372
REMARK  161  A    between atoms: _371  and  _374
REMARK  162  A    between atoms: _374  and  _375
REMARK  163  A    between atoms: _378  and  _380
REMARK  164  A    between atoms: _380  and  _381
REMARK  165  A    between atoms: _380  and  _383
REMARK  166  A    between atoms: _386  and  _388
REMARK  167  A    between atoms: _388  and  _389
REMARK  168  A    between atoms: _388  and  _391
REMARK  169  A    between atoms: _391  and  _392
REMARK  170  A    between atoms: _394  and  _396
REMARK  171  A    between atoms: _396  and  _397
REMARK  172  A    between atoms: _396  and  _399
REMARK  173  A    between atoms: _399  and  _400
REMARK  174  A    between atoms: _410  and  _412
REMARK  175  A    between atoms: _412  and  _413
REMARK  176  A    between atoms: _415  and  _417
REMARK  177  A    between atoms: _417  and  _418
REMARK  178  A    between atoms: _417  and  _420
REMARK  179  A    between atoms: _420  and  _421
REMARK  180  A    between atoms: _421  and  _422
REMARK  181  A    between atoms: _425  and  _427
REMARK  182  A    between atoms: _427  and  _428
REMARK  183  A    between atoms: _430  and  _432
REMARK  184  A    between atoms: _432  and  _433
REMARK  185  A    between atoms: _432  and  _435
REMARK  186  A    between atoms: _435  and  _436
REMARK  187  A    between atoms: _437  and  _439
REMARK  188  A    between atoms: _439  and  _440
REMARK  189  A    between atoms: _443  and  _445
REMARK  190  A    between atoms: _445  and  _446
REMARK  191  A    between atoms: _445  and  _448
REMARK  192  A    between atoms: _448  and  _449
REMARK  193  A    between atoms: _449  and  _450
REMARK  194  A    between atoms: _450  and  _451
REMARK  195  A    between atoms: _460  and  _462
REMARK  196  A    between atoms: _462  and  _463
REMARK  197  A    between atoms: _462  and  _465
REMARK  198  A    between atoms: _465  and  _466
REMARK  199  A    between atoms: _466  and  _467
REMARK  200  A    between atoms: _467  and  _468
REMARK  201  A    between atoms: _468  and  _469
REMARK  202  A    between atoms: _473  and  _475
REMARK  203  A    between atoms: _475  and  _476
REMARK  204  A    between atoms: _475  and  _478
REMARK  205  A    between atoms: _478  and  _479
REMARK  206  A    between atoms: _484  and  _485
REMARK  207  A    between atoms: _487  and  _489
REMARK  208  A    between atoms: _489  and  _490
REMARK  209  A    between atoms: _492  and  _494
REMARK  210  A    between atoms: _494  and  _495
REMARK  211  A    between atoms: _494  and  _497
REMARK  212  A    between atoms: _497  and  _498
REMARK  213  A    between atoms: _501  and  _503
REMARK  214  A    between atoms: _503  and  _504
REMARK  215  A    between atoms: _503  and  _506
REMARK  216  A    between atoms: _506  and  _507
REMARK  217  A    between atoms: _512  and  _513
REMARK  218  A    between atoms: _515  and  _517
REMARK  219  A    between atoms: _517  and  _518
REMARK  220  A    between atoms: _517  and  _520
REMARK  221  A    between atoms: _520  and  _521
REMARK                            x       y       z     vdW  Elec       q    Type
REMARK                         _______ _______ _______ _____ _____    ______ ____
ROOT
ATOM      1  O   HOH     1      -2.976  12.736  20.198  0.00  0.00    +0.000 OA
ENDROOT
TORSDOF 0
REMARK  Name = ../refined-set-2016/2xc4/2xc4_pocket.pdb
REMARK  221 active torsions:
REMARK  status: ('A' for Active; 'I' for Inactive)
REMARK    1  A    between atoms: _1  and  _5
REMARK    2  A    between atoms: _5  and  _6
REMARK    3  A    between atoms: _5  and  _8
REMARK    4  A    between atoms: _8  and  _9
REMARK    5  A    between atoms: _12  and  _14
REMARK    6  A    between atoms: _14  and  _15
REMARK    7  A    between atoms: _14  and  _17
REMARK    8  A    between atoms: _20  and  _22
REMARK    9  A    between atoms: _22  and  _23
REMARK   10  A    between atoms: _22  and  _25
REMARK   11  A    between atoms: _25  and  _26
REMARK   12  A    between atoms: _31  and  _33
REMARK   13  A    between atoms: _33  and  _34
REMARK   14  A    between atoms: _33  and  _36
REMARK   15  A    between atoms: _36  and  _37
REMARK   16  A    between atoms: _37  and  _38
REMARK   17  A    between atoms: _43  and  _45
REMARK   18  A    between atoms: _45  and  _46
REMARK   19  A    between atoms: _45  and  _48
REMARK   20  A    between atoms: _48  and  _49
REMARK   21  A    between atoms: _52  and  _54
REMARK   22  A    between atoms: _54  and  _55
REMARK   23  A    between atoms: _54  and  _57
REMARK   24  A    between atoms: _57  and  _58
REMARK   25  A    between atoms: _58  and  _59
REMARK   26  A    between atoms: _59  and  _60
REMARK   27  A    between atoms: _60  and  _61
REMARK   28  A    between atoms: _65  and  _67
REMARK   29  A    between atoms: _67  and  _68
REMARK   30  A    between atoms: _67  and  _70
REMARK   31  A    between atoms: _70  and  _71
REMARK   32  A    between atoms: _71  and  _72
REMARK   33  A    between atoms: _75  and  _77
REMARK   34  A    between atoms: _77  and  _78
REMARK   35  A    between atoms: _77  and  _80
REMARK   36  A    between atoms: _80  and  _81
REMARK   37  A    between atoms: _84  and  _86
REMARK   38  A    between atoms: _86  and  _87
REMARK   39  A    between atoms: _86  and  _89
REMARK   40  A    between atoms: _89  and  _90
REMARK   41  A    between atoms: _95  and  _96
REMARK   42  A    between atoms: _98  and  _100
REMARK   43  A    between atoms: _100  and  _101
REMARK   44  A    between atoms: _100  and  _103
REMARK   45  A    between atoms: _103  and  _104
REMARK   46  A    between atoms: _107  and  _109
REMARK   47  A    between atoms: _109  and  _110
REMARK   48  A    between atoms: _109  and  _112
REMARK   49  A    between atoms: _112  and  _113
REMARK   50  A    between atoms: _116  and  _118
REMARK   51  A    between atoms: _118  and  _119
REMARK   52  A    between atoms: _118  and  _121
REMARK   53  A    between atoms: _124  and  _126
REMARK   54  A    between atoms: _126  and  _127
REMARK   55  A    between atoms: _126  and  _129
REMARK   56  A    between atoms: _129  and  _130
REMARK   57  A    between atoms: _130  and  _131
REMARK   58  A    between atoms: _131  and  _132
REMARK   59  A    between atoms: _141  and  _143
REMARK   60  A    between atoms: _143  and  _144
REMARK   61  A    between atoms: _143  and  _146
REMARK   62  A    between atoms: _146  and  _147
REMARK   63  A    between atoms: _152  and  _154
REMARK   64  A    between atoms: _154  and  _155
REMARK   65  A    between atoms: _154  and  _157
REMARK   66  A    between atoms: _157  and  _158
REMARK   67  A    between atoms: _158  and  _159
REMARK   68  A    between atoms: _162  and  _164
REMARK   69  A    between atoms: _164  and  _165
REMARK   70  A    between atoms: _164  and  _167
REMARK   71  A    between atoms: _167  and  _168
REMARK   72  A    between atoms: _168  and  _169
REMARK   73  A    between atoms: _169  and  _170
REMARK   74  A    between atoms: _170  and  _171
REMARK   75  A    between atoms: _175  and  _177
REMARK   76  A    between atoms: _177  and  _178
REMARK   77  A    between atoms: _180  and  _182
REMARK   78  A    between atoms: _182  and  _183
REMARK   79  A    between atoms: _182  and  _185
REMARK   80  A    between atoms: _188  and  _190
REMARK   81  A    between atoms: _190  and  _191
REMARK   82  A    between atoms: _190  and  _193
REMARK   83  A    between atoms: _193  and  _194
REMARK   84  A    between atoms: _196  and  _198
REMARK   85  A    between atoms: _198  and  _199
REMARK   86  A    between atoms: _198  and  _201
REMARK   87  A    between atoms: _201  and  _202
REMARK   88  A    between atoms: _204  and  _206
REMARK   89  A    between atoms: _206  and  _207
REMARK   90  A    between atoms: _206  and  _209
REMARK   91  A    between atoms: _209  and  _210
REMARK   92  A    between atoms: _216  and  _218
REMARK   93  A    between atoms: _218  and  _219
REMARK   94  A    between atoms: _218  and  _221
REMARK   95  A    between atoms: _221  and  _222
REMARK   96  A    between atoms: _225  and  _227
REMARK   97  A    between atoms: _227  and  _228
REMARK   98  A    between atoms: _227  and  _230
REMARK   99  A    between atoms: _230  and  _231
REMARK  100  A    between atoms: _234  and  _236
REMARK  101  A    between atoms: _236  and  _237
REMARK  102  A    between atoms: _236  and  _239
REMARK  103  A    between atoms: _239  and  _240
REMARK  104  A    between atoms: _243  and  _245
REMARK  105  A    between atoms: _245  and  _246
REMARK  106  A    between atoms: _245  and  _248
REMARK  107  A    between atoms: _248  and  _249
REMARK  108  A    between atoms: _249  and  _250
REMARK  109  A    between atoms: _252  and  _254
REMARK  110  A    between atoms: _254  and  _255
REMARK  111  A    between atoms: _254  and  _257
REMARK  112  A    between atoms: _257  and  _258
REMARK  113  A    between atoms: _264  and  _266
REMARK  114  A    between atoms: _266  and  _267
REMARK  115  A    between atoms: _266  and  _269
REMARK  116  A    between atoms: _271  and  _273
REMARK  117  A    between atoms: _273  and  _274
REMARK  118  A    between atoms: _277  and  _279
REMARK  119  A    between atoms: _279  and  _280
REMARK  120  A    between atoms: _282  and  _284
REMARK  121  A    between atoms: _284  and  _285
REMARK  122  A    between atoms: _284  and  _287
REMARK  123  A    between atoms: _287  and  _288
REMARK  124  A    between atoms: _288  and  _289
REMARK  125  A    between atoms: _292  and  _294
REMARK  126  A    between atoms: _294  and  _295
REMARK  127  A    between atoms: _294  and  _297
REMARK  128  A    between atoms: _297  and  _298
REMARK  129  A    between atoms: _301  and  _303
REMARK  130  A    between atoms: _303  and  _304
REMARK  131  A    between atoms: _307  and  _309
REMARK  132  A    between atoms: _309  and  _310
REMARK  133  A    between atoms: _309  and  _312
REMARK  134  A    between atoms: _312  and  _313
REMARK  135  A    between atoms: _313  and  _436
REMARK  136  A    between atoms: _314  and  _316
REMARK  137  A    between atoms: _316  and  _317
REMARK  138  A    between atoms: _316  and  _319
REMARK  139  A    between atoms: _319  and  _320
REMARK  140  A    between atoms: _320  and  _321
REMARK  141  A    between atoms: _326  and  _328
REMARK  142  A    between atoms: _328  and  _329
REMARK  143  A    between atoms: _331  and  _333
REMARK  144  A    between atoms: _333  and  _334
REMARK  145  A    between atoms: _333  and  _336
REMARK  146  A    between atoms: _336  and  _337
REMARK  147  A    between atoms: _340  and  _342
REMARK  148  A    between atoms: _342  and  _343
REMARK  149  A    between atoms: _342  and  _345
REMARK  150  A    between atoms: _345  and  _346
REMARK  151  A    between atoms: _348  and  _350
REMARK  152  A    between atoms: _350  and  _351
REMARK  153  A    between atoms: _353  and  _355
REMARK  154  A    between atoms: _355  and  _356
REMARK  155  A    between atoms: _358  and  _360
REMARK  156  A    between atoms: _360  and  _361
REMARK  157  A    between atoms: _360  and  _363
REMARK  158  A    between atoms: _363  and  _364
REMARK  159  A    between atoms: _369  and  _371
REMARK  160  A    between atoms: _371  and  _372
REMARK  161  A    between atoms: _371  and  _374
REMARK  162  A    between atoms: _374  and  _375
REMARK  163  A    between atoms: _378  and  _380
REMARK  164  A    between atoms: _380  and  _381
REMARK  165  A    between atoms: _380  and  _383
REMARK  166  A    between atoms: _386  and  _388
REMARK  167  A    between atoms: _388  and  _389
REMARK  168  A    between atoms: _388  and  _391
REMARK  169  A    between atoms: _391  and  _392
REMARK  170  A    between atoms: _394  and  _396
REMARK  171  A    between atoms: _396  and  _397
REMARK  172  A    between atoms: _396  and  _399
REMARK  173  A    between atoms: _399  and  _400
REMARK  174  A    between atoms: _410  and  _412
REMARK  175  A    between atoms: _412  and  _413
REMARK  176  A    between atoms: _415  and  _417
REMARK  177  A    between atoms: _417  and  _418
REMARK  178  A    between atoms: _417  and  _420
REMARK  179  A    between atoms: _420  and  _421
REMARK  180  A    between atoms: _421  and  _422
REMARK  181  A    between atoms: _425  and  _427
REMARK  182  A    between atoms: _427  and  _428
REMARK  183  A    between atoms: _430  and  _432
REMARK  184  A    between atoms: _432  and  _433
REMARK  185  A    between atoms: _432  and  _435
REMARK  186  A    between atoms: _435  and  _436
REMARK  187  A    between atoms: _437  and  _439
REMARK  188  A    between atoms: _439  and  _440
REMARK  189  A    between atoms: _443  and  _445
REMARK  190  A    between atoms: _445  and  _446
REMARK  191  A    between atoms: _445  and  _448
REMARK  192  A    between atoms: _448  and  _449
REMARK  193  A    between atoms: _449  and  _450
REMARK  194  A    between atoms: _450  and  _451
REMARK  195  A    between atoms: _460  and  _462
REMARK  196  A    between atoms: _462  and  _463
REMARK  197  A    between atoms: _462  and  _465
REMARK  198  A    between atoms: _465  and  _466
REMARK  199  A    between atoms: _466  and  _467
REMARK  200  A    between atoms: _467  and  _468
REMARK  201  A    between atoms: _468  and  _469
REMARK  202  A    between atoms: _473  and  _475
REMARK  203  A    between atoms: _475  and  _476
REMARK  204  A    between atoms: _475  and  _478
REMARK  205  A    between atoms: _478  and  _479
REMARK  206  A    between atoms: _484  and  _485
REMARK  207  A    between atoms: _487  and  _489
REMARK  208  A    between atoms: _489  and  _490
REMARK  209  A    between atoms: _492  and  _494
REMARK  210  A    between atoms: _494  and  _495
REMARK  211  A    between atoms: _494  and  _497
REMARK  212  A    between atoms: _497  and  _498
REMARK  213  A    between atoms: _501  and  _503
REMARK  214  A    between atoms: _503  and  _504
REMARK  215  A    between atoms: _503  and  _506
REMARK  216  A    between atoms: _506  and  _507
REMARK  217  A    between atoms: _512  and  _513
REMARK  218  A    between atoms: _515  and  _517
REMARK  219  A    between atoms: _517  and  _518
REMARK  220  A    between atoms: _517  and  _520
REMARK  221  A    between atoms: _520  and  _521
REMARK                            x       y       z     vdW  Elec       q    Type
REMARK                         _______ _______ _______ _____ _____    ______ ____
ROOT
ATOM      1  O   HOH     1      -8.120   9.855  17.520  0.00  0.00    +0.000 OA
ENDROOT
TORSDOF 0
REMARK  Name = ../refined-set-2016/2xc4/2xc4_pocket.pdb
REMARK  221 active torsions:
REMARK  status: ('A' for Active; 'I' for Inactive)
REMARK    1  A    between atoms: _1  and  _5
REMARK    2  A    between atoms: _5  and  _6
REMARK    3  A    between atoms: _5  and  _8
REMARK    4  A    between atoms: _8  and  _9
REMARK    5  A    between atoms: _12  and  _14
REMARK    6  A    between atoms: _14  and  _15
REMARK    7  A    between atoms: _14  and  _17
REMARK    8  A    between atoms: _20  and  _22
REMARK    9  A    between atoms: _22  and  _23
REMARK   10  A    between atoms: _22  and  _25
REMARK   11  A    between atoms: _25  and  _26
REMARK   12  A    between atoms: _31  and  _33
REMARK   13  A    between atoms: _33  and  _34
REMARK   14  A    between atoms: _33  and  _36
REMARK   15  A    between atoms: _36  and  _37
REMARK   16  A    between atoms: _37  and  _38
REMARK   17  A    between atoms: _43  and  _45
REMARK   18  A    between atoms: _45  and  _46
REMARK   19  A    between atoms: _45  and  _48
REMARK   20  A    between atoms: _48  and  _49
REMARK   21  A    between atoms: _52  and  _54
REMARK   22  A    between atoms: _54  and  _55
REMARK   23  A    between atoms: _54  and  _57
REMARK   24  A    between atoms: _57  and  _58
REMARK   25  A    between atoms: _58  and  _59
REMARK   26  A    between atoms: _59  and  _60
REMARK   27  A    between atoms: _60  and  _61
REMARK   28  A    between atoms: _65  and  _67
REMARK   29  A    between atoms: _67  and  _68
REMARK   30  A    between atoms: _67  and  _70
REMARK   31  A    between atoms: _70  and  _71
REMARK   32  A    between atoms: _71  and  _72
REMARK   33  A    between atoms: _75  and  _77
REMARK   34  A    between atoms: _77  and  _78
REMARK   35  A    between atoms: _77  and  _80
REMARK   36  A    between atoms: _80  and  _81
REMARK   37  A    between atoms: _84  and  _86
REMARK   38  A    between atoms: _86  and  _87
REMARK   39  A    between atoms: _86  and  _89
REMARK   40  A    between atoms: _89  and  _90
REMARK   41  A    between atoms: _95  and  _96
REMARK   42  A    between atoms: _98  and  _100
REMARK   43  A    between atoms: _100  and  _101
REMARK   44  A    between atoms: _100  and  _103
REMARK   45  A    between atoms: _103  and  _104
REMARK   46  A    between atoms: _107  and  _109
REMARK   47  A    between atoms: _109  and  _110
REMARK   48  A    between atoms: _109  and  _112
REMARK   49  A    between atoms: _112  and  _113
REMARK   50  A    between atoms: _116  and  _118
REMARK   51  A    between atoms: _118  and  _119
REMARK   52  A    between atoms: _118  and  _121
REMARK   53  A    between atoms: _124  and  _126
REMARK   54  A    between atoms: _126  and  _127
REMARK   55  A    between atoms: _126  and  _129
REMARK   56  A    between atoms: _129  and  _130
REMARK   57  A    between atoms: _130  and  _131
REMARK   58  A    between atoms: _131  and  _132
REMARK   59  A    between atoms: _141  and  _143
REMARK   60  A    between atoms: _143  and  _144
REMARK   61  A    between atoms: _143  and  _146
REMARK   62  A    between atoms: _146  and  _147
REMARK   63  A    between atoms: _152  and  _154
REMARK   64  A    between atoms: _154  and  _155
REMARK   65  A    between atoms: _154  and  _157
REMARK   66  A    between atoms: _157  and  _158
REMARK   67  A    between atoms: _158  and  _159
REMARK   68  A    between atoms: _162  and  _164
REMARK   69  A    between atoms: _164  and  _165
REMARK   70  A    between atoms: _164  and  _167
REMARK   71  A    between atoms: _167  and  _168
REMARK   72  A    between atoms: _168  and  _169
REMARK   73  A    between atoms: _169  and  _170
REMARK   74  A    between atoms: _170  and  _171
REMARK   75  A    between atoms: _175  and  _177
REMARK   76  A    between atoms: _177  and  _178
REMARK   77  A    between atoms: _180  and  _182
REMARK   78  A    between atoms: _182  and  _183
REMARK   79  A    between atoms: _182  and  _185
REMARK   80  A    between atoms: _188  and  _190
REMARK   81  A    between atoms: _190  and  _191
REMARK   82  A    between atoms: _190  and  _193
REMARK   83  A    between atoms: _193  and  _194
REMARK   84  A    between atoms: _196  and  _198
REMARK   85  A    between atoms: _198  and  _199
REMARK   86  A    between atoms: _198  and  _201
REMARK   87  A    between atoms: _201  and  _202
REMARK   88  A    between atoms: _204  and  _206
REMARK   89  A    between atoms: _206  and  _207
REMARK   90  A    between atoms: _206  and  _209
REMARK   91  A    between atoms: _209  and  _210
REMARK   92  A    between atoms: _216  and  _218
REMARK   93  A    between atoms: _218  and  _219
REMARK   94  A    between atoms: _218  and  _221
REMARK   95  A    between atoms: _221  and  _222
REMARK   96  A    between atoms: _225  and  _227
REMARK   97  A    between atoms: _227  and  _228
REMARK   98  A    between atoms: _227  and  _230
REMARK   99  A    between atoms: _230  and  _231
REMARK  100  A    between atoms: _234  and  _236
REMARK  101  A    between atoms: _236  and  _237
REMARK  102  A    between atoms: _236  and  _239
REMARK  103  A    between atoms: _239  and  _240
REMARK  104  A    between atoms: _243  and  _245
REMARK  105  A    between atoms: _245  and  _246
REMARK  106  A    between atoms: _245  and  _248
REMARK  107  A    between atoms: _248  and  _249
REMARK  108  A    between atoms: _249  and  _250
REMARK  109  A    between atoms: _252  and  _254
REMARK  110  A    between atoms: _254  and  _255
REMARK  111  A    between atoms: _254  and  _257
REMARK  112  A    between atoms: _257  and  _258
REMARK  113  A    between atoms: _264  and  _266
REMARK  114  A    between atoms: _266  and  _267
REMARK  115  A    between atoms: _266  and  _269
REMARK  116  A    between atoms: _271  and  _273
REMARK  117  A    between atoms: _273  and  _274
REMARK  118  A    between atoms: _277  and  _279
REMARK  119  A    between atoms: _279  and  _280
REMARK  120  A    between atoms: _282  and  _284
REMARK  121  A    between atoms: _284  and  _285
REMARK  122  A    between atoms: _284  and  _287
REMARK  123  A    between atoms: _287  and  _288
REMARK  124  A    between atoms: _288  and  _289
REMARK  125  A    between atoms: _292  and  _294
REMARK  126  A    between atoms: _294  and  _295
REMARK  127  A    between atoms: _294  and  _297
REMARK  128  A    between atoms: _297  and  _298
REMARK  129  A    between atoms: _301  and  _303
REMARK  130  A    between atoms: _303  and  _304
REMARK  131  A    between atoms: _307  and  _309
REMARK  132  A    between atoms: _309  and  _310
REMARK  133  A    between atoms: _309  and  _312
REMARK  134  A    between atoms: _312  and  _313
REMARK  135  A    between atoms: _313  and  _436
REMARK  136  A    between atoms: _314  and  _316
REMARK  137  A    between atoms: _316  and  _317
REMARK  138  A    between atoms: _316  and  _319
REMARK  139  A    between atoms: _319  and  _320
REMARK  140  A    between atoms: _320  and  _321
REMARK  141  A    between atoms: _326  and  _328
REMARK  142  A    between atoms: _328  and  _329
REMARK  143  A    between atoms: _331  and  _333
REMARK  144  A    between atoms: _333  and  _334
REMARK  145  A    between atoms: _333  and  _336
REMARK  146  A    between atoms: _336  and  _337
REMARK  147  A    between atoms: _340  and  _342
REMARK  148  A    between atoms: _342  and  _343
REMARK  149  A    between atoms: _342  and  _345
REMARK  150  A    between atoms: _345  and  _346
REMARK  151  A    between atoms: _348  and  _350
REMARK  152  A    between atoms: _350  and  _351
REMARK  153  A    between atoms: _353  and  _355
REMARK  154  A    between atoms: _355  and  _356
REMARK  155  A    between atoms: _358  and  _360
REMARK  156  A    between atoms: _360  and  _361
REMARK  157  A    between atoms: _360  and  _363
REMARK  158  A    between atoms: _363  and  _364
REMARK  159  A    between atoms: _369  and  _371
REMARK  160  A    between atoms: _371  and  _372
REMARK  161  A    between atoms: _371  and  _374
REMARK  162  A    between atoms: _374  and  _375
REMARK  163  A    between atoms: _378  and  _380
REMARK  164  A    between atoms: _380  and  _381
REMARK  165  A    between atoms: _380  and  _383
REMARK  166  A    between atoms: _386  and  _388
REMARK  167  A    between atoms: _388  and  _389
REMARK  168  A    between atoms: _388  and  _391
REMARK  169  A    between atoms: _391  and  _392
REMARK  170  A    between atoms: _394  and  _396
REMARK  171  A    between atoms: _396  and  _397
REMARK  172  A    between atoms: _396  and  _399
REMARK  173  A    between atoms: _399  and  _400
REMARK  174  A    between atoms: _410  and  _412
REMARK  175  A    between atoms: _412  and  _413
REMARK  176  A    between atoms: _415  and  _417
REMARK  177  A    between atoms: _417  and  _418
REMARK  178  A    between atoms: _417  and  _420
REMARK  179  A    between atoms: _420  and  _421
REMARK  180  A    between atoms: _421  and  _422
REMARK  181  A    between atoms: _425  and  _427
REMARK  182  A    between atoms: _427  and  _428
REMARK  183  A    between atoms: _430  and  _432
REMARK  184  A    between atoms: _432  and  _433
REMARK  185  A    between atoms: _432  and  _435
REMARK  186  A    between atoms: _435  and  _436
REMARK  187  A    between atoms: _437  and  _439
REMARK  188  A    between atoms: _439  and  _440
REMARK  189  A    between atoms: _443  and  _445
REMARK  190  A    between atoms: _445  and  _446
REMARK  191  A    between atoms: _445  and  _448
REMARK  192  A    between atoms: _448  and  _449
REMARK  193  A    between atoms: _449  and  _450
REMARK  194  A    between atoms: _450  and  _451
REMARK  195  A    between atoms: _460  and  _462
REMARK  196  A    between atoms: _462  and  _463
REMARK  197  A    between atoms: _462  and  _465
REMARK  198  A    between atoms: _465  and  _466
REMARK  199  A    between atoms: _466  and  _467
REMARK  200  A    between atoms: _467  and  _468
REMARK  201  A    between atoms: _468  and  _469
REMARK  202  A    between atoms: _473  and  _475
REMARK  203  A    between atoms: _475  and  _476
REMARK  204  A    between atoms: _475  and  _478
REMARK  205  A    between atoms: _478  and  _479
REMARK  206  A    between atoms: _484  and  _485
REMARK  207  A    between atoms: _487  and  _489
REMARK  208  A    between atoms: _489  and  _490
REMARK  209  A    between atoms: _492  and  _494
REMARK  210  A    between atoms: _494  and  _495
REMARK  211  A    between atoms: _494  and  _497
REMARK  212  A    between atoms: _497  and  _498
REMARK  213  A    between atoms: _501  and  _503
REMARK  214  A    between atoms: _503  and  _504
REMARK  215  A    between atoms: _503  and  _506
REMARK  216  A    between atoms: _506  and  _507
REMARK  217  A    between atoms: _512  and  _513
REMARK  218  A    between atoms: _515  and  _517
REMARK  219  A    between atoms: _517  and  _518
REMARK  220  A    between atoms: _517  and  _520
REMARK  221  A    between atoms: _520  and  _521
REMARK                            x       y       z     vdW  Elec       q    Type
REMARK                         _______ _______ _______ _____ _____    ______ ____
ROOT
ATOM      1  O   HOH     1      -7.058  12.515  20.787  0.00  0.00    +0.000 OA
ENDROOT
TORSDOF 0
