REMARK  Name = ../refined-set-2016/2fmb/2fmb_pocket.pdb
REMARK  206 active torsions:
REMARK  status: ('A' for Active; 'I' for Inactive)
REMARK    1  A    between atoms: _1  and  _3
REMARK    2  A    between atoms: _3  and  _4
REMARK    3  A    between atoms: _3  and  _6
REMARK    4  A    between atoms: _6  and  _7
REMARK    5  A    between atoms: _7  and  _8
REMARK    6  A    between atoms: _8  and  _9
REMARK    7  A    between atoms: _18  and  _20
REMARK    8  A    between atoms: _20  and  _21
REMARK    9  A    between atoms: _20  and  _23
REMARK   10  A    between atoms: _23  and  _24
REMARK   11  A    between atoms: _27  and  _29
REMARK   12  A    between atoms: _29  and  _30
REMARK   13  A    between atoms: _29  and  _32
REMARK   14  A    between atoms: _32  and  _33
REMARK   15  A    between atoms: _36  and  _38
REMARK   16  A    between atoms: _38  and  _39
REMARK   17  A    between atoms: _38  and  _41
REMARK   18  A    between atoms: _41  and  _42
REMARK   19  A    between atoms: _45  and  _47
REMARK   20  A    between atoms: _47  and  _48
REMARK   21  A    between atoms: _47  and  _50
REMARK   22  A    between atoms: _50  and  _51
REMARK   23  A    between atoms: _54  and  _56
REMARK   24  A    between atoms: _56  and  _57
REMARK   25  A    between atoms: _59  and  _61
REMARK   26  A    between atoms: _61  and  _62
REMARK   27  A    between atoms: _65  and  _67
REMARK   28  A    between atoms: _67  and  _68
REMARK   29  A    between atoms: _67  and  _70
REMARK   30  A    between atoms: _70  and  _71
REMARK   31  A    between atoms: _74  and  _76
REMARK   32  A    between atoms: _76  and  _77
REMARK   33  A    between atoms: _76  and  _79
REMARK   34  A    between atoms: _79  and  _80
REMARK   35  A    between atoms: _83  and  _85
REMARK   36  A    between atoms: _85  and  _86
REMARK   37  A    between atoms: _85  and  _88
REMARK   38  A    between atoms: _88  and  _89
REMARK   39  A    between atoms: _91  and  _93
REMARK   40  A    between atoms: _93  and  _94
REMARK   41  A    between atoms: _93  and  _96
REMARK   42  A    between atoms: _99  and  _101
REMARK   43  A    between atoms: _101  and  _102
REMARK   44  A    between atoms: _101  and  _104
REMARK   45  A    between atoms: _104  and  _105
REMARK   46  A    between atoms: _108  and  _110
REMARK   47  A    between atoms: _110  and  _111
REMARK   48  A    between atoms: _113  and  _115
REMARK   49  A    between atoms: _115  and  _116
REMARK   50  A    between atoms: _115  and  _118
REMARK   51  A    between atoms: _118  and  _119
REMARK   52  A    between atoms: _122  and  _124
REMARK   53  A    between atoms: _124  and  _125
REMARK   54  A    between atoms: _127  and  _129
REMARK   55  A    between atoms: _129  and  _130
REMARK   56  A    between atoms: _132  and  _134
REMARK   57  A    between atoms: _134  and  _135
REMARK   58  A    between atoms: _134  and  _137
REMARK   59  A    between atoms: _140  and  _142
REMARK   60  A    between atoms: _142  and  _143
REMARK   61  A    between atoms: _145  and  _147
REMARK   62  A    between atoms: _147  and  _148
REMARK   63  A    between atoms: _150  and  _152
REMARK   64  A    between atoms: _152  and  _153
REMARK   65  A    between atoms: _152  and  _155
REMARK   66  A    between atoms: _155  and  _156
REMARK   67  A    between atoms: _161  and  _163
REMARK   68  A    between atoms: _163  and  _164
REMARK   69  A    between atoms: _163  and  _166
REMARK   70  A    between atoms: _169  and  _171
REMARK   71  A    between atoms: _171  and  _172
REMARK   72  A    between atoms: _171  and  _174
REMARK   73  A    between atoms: _174  and  _175
REMARK   74  A    between atoms: _178  and  _180
REMARK   75  A    between atoms: _180  and  _181
REMARK   76  A    between atoms: _180  and  _183
REMARK   77  A    between atoms: _183  and  _184
REMARK   78  A    between atoms: _188  and  _189
REMARK   79  A    between atoms: _194  and  _196
REMARK   80  A    between atoms: _196  and  _197
REMARK   81  A    between atoms: _196  and  _199
REMARK   82  A    between atoms: _202  and  _204
REMARK   83  A    between atoms: _204  and  _205
REMARK   84  A    between atoms: _204  and  _207
REMARK   85  A    between atoms: _207  and  _208
REMARK   86  A    between atoms: _211  and  _213
REMARK   87  A    between atoms: _213  and  _214
REMARK   88  A    between atoms: _213  and  _216
REMARK   89  A    between atoms: _216  and  _217
REMARK   90  A    between atoms: _220  and  _222
REMARK   91  A    between atoms: _222  and  _223
REMARK   92  A    between atoms: _222  and  _225
REMARK   93  A    between atoms: _225  and  _226
REMARK   94  A    between atoms: _229  and  _231
REMARK   95  A    between atoms: _231  and  _232
REMARK   96  A    between atoms: _234  and  _236
REMARK   97  A    between atoms: _236  and  _237
REMARK   98  A    between atoms: _236  and  _239
REMARK   99  A    between atoms: _239  and  _240
REMARK  100  A    between atoms: _240  and  _241
REMARK  101  A    between atoms: _241  and  _242
REMARK  102  A    between atoms: _251  and  _253
REMARK  103  A    between atoms: _253  and  _254
REMARK  104  A    between atoms: _253  and  _256
REMARK  105  A    between atoms: _256  and  _257
REMARK  106  A    between atoms: _257  and  _258
REMARK  107  A    between atoms: _258  and  _259
REMARK  108  A    between atoms: _268  and  _270
REMARK  109  A    between atoms: _270  and  _271
REMARK  110  A    between atoms: _270  and  _273
REMARK  111  A    between atoms: _273  and  _274
REMARK  112  A    between atoms: _277  and  _279
REMARK  113  A    between atoms: _279  and  _280
REMARK  114  A    between atoms: _279  and  _282
REMARK  115  A    between atoms: _282  and  _283
REMARK  116  A    between atoms: _286  and  _288
REMARK  117  A    between atoms: _288  and  _289
REMARK  118  A    between atoms: _288  and  _291
REMARK  119  A    between atoms: _291  and  _292
REMARK  120  A    between atoms: _295  and  _297
REMARK  121  A    between atoms: _297  and  _298
REMARK  122  A    between atoms: _297  and  _300
REMARK  123  A    between atoms: _300  and  _301
REMARK  124  A    between atoms: _304  and  _306
REMARK  125  A    between atoms: _306  and  _307
REMARK  126  A    between atoms: _306  and  _309
REMARK  127  A    between atoms: _309  and  _310
REMARK  128  A    between atoms: _313  and  _315
REMARK  129  A    between atoms: _315  and  _316
REMARK  130  A    between atoms: _318  and  _320
REMARK  131  A    between atoms: _320  and  _321
REMARK  132  A    between atoms: _324  and  _326
REMARK  133  A    between atoms: _326  and  _327
REMARK  134  A    between atoms: _326  and  _329
REMARK  135  A    between atoms: _329  and  _330
REMARK  136  A    between atoms: _333  and  _335
REMARK  137  A    between atoms: _335  and  _336
REMARK  138  A    between atoms: _335  and  _338
REMARK  139  A    between atoms: _338  and  _339
REMARK  140  A    between atoms: _342  and  _344
REMARK  141  A    between atoms: _344  and  _345
REMARK  142  A    between atoms: _344  and  _347
REMARK  143  A    between atoms: _347  and  _348
REMARK  144  A    between atoms: _350  and  _352
REMARK  145  A    between atoms: _352  and  _353
REMARK  146  A    between atoms: _352  and  _355
REMARK  147  A    between atoms: _358  and  _360
REMARK  148  A    between atoms: _360  and  _361
REMARK  149  A    between atoms: _360  and  _363
REMARK  150  A    between atoms: _363  and  _364
REMARK  151  A    between atoms: _367  and  _369
REMARK  152  A    between atoms: _369  and  _370
REMARK  153  A    between atoms: _372  and  _374
REMARK  154  A    between atoms: _374  and  _375
REMARK  155  A    between atoms: _374  and  _377
REMARK  156  A    between atoms: _377  and  _378
REMARK  157  A    between atoms: _381  and  _383
REMARK  158  A    between atoms: _383  and  _384
REMARK  159  A    between atoms: _386  and  _388
REMARK  160  A    between atoms: _388  and  _389
REMARK  161  A    between atoms: _391  and  _393
REMARK  162  A    between atoms: _393  and  _394
REMARK  163  A    between atoms: _393  and  _396
REMARK  164  A    between atoms: _399  and  _401
REMARK  165  A    between atoms: _401  and  _402
REMARK  166  A    between atoms: _404  and  _406
REMARK  167  A    between atoms: _406  and  _407
REMARK  168  A    between atoms: _409  and  _411
REMARK  169  A    between atoms: _411  and  _412
REMARK  170  A    between atoms: _411  and  _414
REMARK  171  A    between atoms: _414  and  _415
REMARK  172  A    between atoms: _420  and  _422
REMARK  173  A    between atoms: _422  and  _423
REMARK  174  A    between atoms: _422  and  _425
REMARK  175  A    between atoms: _428  and  _430
REMARK  176  A    between atoms: _430  and  _431
REMARK  177  A    between atoms: _430  and  _433
REMARK  178  A    between atoms: _433  and  _434
REMARK  179  A    between atoms: _437  and  _439
REMARK  180  A    between atoms: _439  and  _440
REMARK  181  A    between atoms: _439  and  _442
REMARK  182  A    between atoms: _442  and  _443
REMARK  183  A    between atoms: _446  and  _448
REMARK  184  A    between atoms: _448  and  _449
REMARK  185  A    between atoms: _448  and  _451
REMARK  186  A    between atoms: _451  and  _452
REMARK  187  A    between atoms: _456  and  _457
REMARK  188  A    between atoms: _462  and  _464
REMARK  189  A    between atoms: _464  and  _465
REMARK  190  A    between atoms: _464  and  _467
REMARK  191  A    between atoms: _470  and  _472
REMARK  192  A    between atoms: _472  and  _473
REMARK  193  A    between atoms: _472  and  _475
REMARK  194  A    between atoms: _475  and  _476
REMARK  195  A    between atoms: _479  and  _481
REMARK  196  A    between atoms: _481  and  _482
REMARK  197  A    between atoms: _481  and  _484
REMARK  198  A    between atoms: _484  and  _485
REMARK  199  A    between atoms: _488  and  _490
REMARK  200  A    between atoms: _490  and  _491
REMARK  201  A    between atoms: _493  and  _495
REMARK  202  A    between atoms: _495  and  _496
REMARK  203  A    between atoms: _495  and  _498
REMARK  204  A    between atoms: _498  and  _499
REMARK  205  A    between atoms: _499  and  _500
REMARK  206  A    between atoms: _500  and  _501
REMARK                            x       y       z     vdW  Elec       q    Type
REMARK                         _______ _______ _______ _____ _____    ______ ____
ROOT
ATOM      1  NE  ARG A   1      -9.663  15.694  -2.850  0.00  0.00    -0.265 N 
ATOM      2  CZ  ARG A   1     -10.716  16.404  -3.265  0.00  0.00    +0.342 C 
ATOM      3  NH2 ARG A   1     -12.001  16.205  -2.894  0.00  0.00    -0.292 N 
ATOM      4 HH21 ARG A   1     -12.238  15.442  -2.228  0.00  0.00    +0.255 HD
ATOM      5 HH22 ARG A   1     -12.753  16.815  -3.275  0.00  0.00    +0.255 HD
ATOM      6  NH1 ARG A   1     -10.451  17.407  -4.106  0.00  0.00    -0.292 N 
ATOM      7 HH11 ARG A   1      -9.471  17.595  -4.399  0.00  0.00    +0.255 HD
ATOM      8 HH12 ARG A   1     -11.225  18.000  -4.468  0.00  0.00    +0.255 HD
ATOM      9  HE  ARG A   1      -8.758  15.956  -3.291  0.00  0.00    +0.259 HD
ENDROOT
BRANCH   1  10
ATOM     10  CD  ARG A   1      -9.581  14.610  -1.877  0.00  0.00    +0.174 C 
BRANCH  10  11
ATOM     11  CG  ARG A   1      -9.565  13.250  -2.575  0.00  0.00    +0.045 C 
BRANCH  11  12
ATOM     12  CB  ARG A   1      -9.546  12.121  -1.537  0.00  0.00    +0.029 C 
BRANCH  12  13
ATOM     13  CA  ARG A   1      -9.194  10.776  -2.186  0.00  0.00    +0.133 C 
BRANCH  13  14
ATOM     14  N   ARG A   1     -10.207  10.457  -3.201  0.00  0.00    -0.239 NA
ATOM     15  H   ARG A   1     -11.007  11.086  -3.415  0.00  0.00    +0.142 HD
ENDBRANCH  13  14
BRANCH  13  16
ATOM     16  C   ARG A   1      -9.276   9.733  -1.066  0.00  0.00    +0.224 C 
ATOM     17  O   ARG A   1     -10.411   9.364  -0.684  0.00  0.00    -0.287 OA
ENDBRANCH  13  16
ENDBRANCH  12  13
ENDBRANCH  11  12
ENDBRANCH  10  11
ENDBRANCH   1  10
TORSDOF 6
REMARK  Name = ../refined-set-2016/2fmb/2fmb_pocket.pdb
REMARK  206 active torsions:
REMARK  status: ('A' for Active; 'I' for Inactive)
REMARK    1  A    between atoms: _1  and  _3
REMARK    2  A    between atoms: _3  and  _4
REMARK    3  A    between atoms: _3  and  _6
REMARK    4  A    between atoms: _6  and  _7
REMARK    5  A    between atoms: _7  and  _8
REMARK    6  A    between atoms: _8  and  _9
REMARK    7  A    between atoms: _18  and  _20
REMARK    8  A    between atoms: _20  and  _21
REMARK    9  A    between atoms: _20  and  _23
REMARK   10  A    between atoms: _23  and  _24
REMARK   11  A    between atoms: _27  and  _29
REMARK   12  A    between atoms: _29  and  _30
REMARK   13  A    between atoms: _29  and  _32
REMARK   14  A    between atoms: _32  and  _33
REMARK   15  A    between atoms: _36  and  _38
REMARK   16  A    between atoms: _38  and  _39
REMARK   17  A    between atoms: _38  and  _41
REMARK   18  A    between atoms: _41  and  _42
REMARK   19  A    between atoms: _45  and  _47
REMARK   20  A    between atoms: _47  and  _48
REMARK   21  A    between atoms: _47  and  _50
REMARK   22  A    between atoms: _50  and  _51
REMARK   23  A    between atoms: _54  and  _56
REMARK   24  A    between atoms: _56  and  _57
REMARK   25  A    between atoms: _59  and  _61
REMARK   26  A    between atoms: _61  and  _62
REMARK   27  A    between atoms: _65  and  _67
REMARK   28  A    between atoms: _67  and  _68
REMARK   29  A    between atoms: _67  and  _70
REMARK   30  A    between atoms: _70  and  _71
REMARK   31  A    between atoms: _74  and  _76
REMARK   32  A    between atoms: _76  and  _77
REMARK   33  A    between atoms: _76  and  _79
REMARK   34  A    between atoms: _79  and  _80
REMARK   35  A    between atoms: _83  and  _85
REMARK   36  A    between atoms: _85  and  _86
REMARK   37  A    between atoms: _85  and  _88
REMARK   38  A    between atoms: _88  and  _89
REMARK   39  A    between atoms: _91  and  _93
REMARK   40  A    between atoms: _93  and  _94
REMARK   41  A    between atoms: _93  and  _96
REMARK   42  A    between atoms: _99  and  _101
REMARK   43  A    between atoms: _101  and  _102
REMARK   44  A    between atoms: _101  and  _104
REMARK   45  A    between atoms: _104  and  _105
REMARK   46  A    between atoms: _108  and  _110
REMARK   47  A    between atoms: _110  and  _111
REMARK   48  A    between atoms: _113  and  _115
REMARK   49  A    between atoms: _115  and  _116
REMARK   50  A    between atoms: _115  and  _118
REMARK   51  A    between atoms: _118  and  _119
REMARK   52  A    between atoms: _122  and  _124
REMARK   53  A    between atoms: _124  and  _125
REMARK   54  A    between atoms: _127  and  _129
REMARK   55  A    between atoms: _129  and  _130
REMARK   56  A    between atoms: _132  and  _134
REMARK   57  A    between atoms: _134  and  _135
REMARK   58  A    between atoms: _134  and  _137
REMARK   59  A    between atoms: _140  and  _142
REMARK   60  A    between atoms: _142  and  _143
REMARK   61  A    between atoms: _145  and  _147
REMARK   62  A    between atoms: _147  and  _148
REMARK   63  A    between atoms: _150  and  _152
REMARK   64  A    between atoms: _152  and  _153
REMARK   65  A    between atoms: _152  and  _155
REMARK   66  A    between atoms: _155  and  _156
REMARK   67  A    between atoms: _161  and  _163
REMARK   68  A    between atoms: _163  and  _164
REMARK   69  A    between atoms: _163  and  _166
REMARK   70  A    between atoms: _169  and  _171
REMARK   71  A    between atoms: _171  and  _172
REMARK   72  A    between atoms: _171  and  _174
REMARK   73  A    between atoms: _174  and  _175
REMARK   74  A    between atoms: _178  and  _180
REMARK   75  A    between atoms: _180  and  _181
REMARK   76  A    between atoms: _180  and  _183
REMARK   77  A    between atoms: _183  and  _184
REMARK   78  A    between atoms: _188  and  _189
REMARK   79  A    between atoms: _194  and  _196
REMARK   80  A    between atoms: _196  and  _197
REMARK   81  A    between atoms: _196  and  _199
REMARK   82  A    between atoms: _202  and  _204
REMARK   83  A    between atoms: _204  and  _205
REMARK   84  A    between atoms: _204  and  _207
REMARK   85  A    between atoms: _207  and  _208
REMARK   86  A    between atoms: _211  and  _213
REMARK   87  A    between atoms: _213  and  _214
REMARK   88  A    between atoms: _213  and  _216
REMARK   89  A    between atoms: _216  and  _217
REMARK   90  A    between atoms: _220  and  _222
REMARK   91  A    between atoms: _222  and  _223
REMARK   92  A    between atoms: _222  and  _225
REMARK   93  A    between atoms: _225  and  _226
REMARK   94  A    between atoms: _229  and  _231
REMARK   95  A    between atoms: _231  and  _232
REMARK   96  A    between atoms: _234  and  _236
REMARK   97  A    between atoms: _236  and  _237
REMARK   98  A    between atoms: _236  and  _239
REMARK   99  A    between atoms: _239  and  _240
REMARK  100  A    between atoms: _240  and  _241
REMARK  101  A    between atoms: _241  and  _242
REMARK  102  A    between atoms: _251  and  _253
REMARK  103  A    between atoms: _253  and  _254
REMARK  104  A    between atoms: _253  and  _256
REMARK  105  A    between atoms: _256  and  _257
REMARK  106  A    between atoms: _257  and  _258
REMARK  107  A    between atoms: _258  and  _259
REMARK  108  A    between atoms: _268  and  _270
REMARK  109  A    between atoms: _270  and  _271
REMARK  110  A    between atoms: _270  and  _273
REMARK  111  A    between atoms: _273  and  _274
REMARK  112  A    between atoms: _277  and  _279
REMARK  113  A    between atoms: _279  and  _280
REMARK  114  A    between atoms: _279  and  _282
REMARK  115  A    between atoms: _282  and  _283
REMARK  116  A    between atoms: _286  and  _288
REMARK  117  A    between atoms: _288  and  _289
REMARK  118  A    between atoms: _288  and  _291
REMARK  119  A    between atoms: _291  and  _292
REMARK  120  A    between atoms: _295  and  _297
REMARK  121  A    between atoms: _297  and  _298
REMARK  122  A    between atoms: _297  and  _300
REMARK  123  A    between atoms: _300  and  _301
REMARK  124  A    between atoms: _304  and  _306
REMARK  125  A    between atoms: _306  and  _307
REMARK  126  A    between atoms: _306  and  _309
REMARK  127  A    between atoms: _309  and  _310
REMARK  128  A    between atoms: _313  and  _315
REMARK  129  A    between atoms: _315  and  _316
REMARK  130  A    between atoms: _318  and  _320
REMARK  131  A    between atoms: _320  and  _321
REMARK  132  A    between atoms: _324  and  _326
REMARK  133  A    between atoms: _326  and  _327
REMARK  134  A    between atoms: _326  and  _329
REMARK  135  A    between atoms: _329  and  _330
REMARK  136  A    between atoms: _333  and  _335
REMARK  137  A    between atoms: _335  and  _336
REMARK  138  A    between atoms: _335  and  _338
REMARK  139  A    between atoms: _338  and  _339
REMARK  140  A    between atoms: _342  and  _344
REMARK  141  A    between atoms: _344  and  _345
REMARK  142  A    between atoms: _344  and  _347
REMARK  143  A    between atoms: _347  and  _348
REMARK  144  A    between atoms: _350  and  _352
REMARK  145  A    between atoms: _352  and  _353
REMARK  146  A    between atoms: _352  and  _355
REMARK  147  A    between atoms: _358  and  _360
REMARK  148  A    between atoms: _360  and  _361
REMARK  149  A    between atoms: _360  and  _363
REMARK  150  A    between atoms: _363  and  _364
REMARK  151  A    between atoms: _367  and  _369
REMARK  152  A    between atoms: _369  and  _370
REMARK  153  A    between atoms: _372  and  _374
REMARK  154  A    between atoms: _374  and  _375
REMARK  155  A    between atoms: _374  and  _377
REMARK  156  A    between atoms: _377  and  _378
REMARK  157  A    between atoms: _381  and  _383
REMARK  158  A    between atoms: _383  and  _384
REMARK  159  A    between atoms: _386  and  _388
REMARK  160  A    between atoms: _388  and  _389
REMARK  161  A    between atoms: _391  and  _393
REMARK  162  A    between atoms: _393  and  _394
REMARK  163  A    between atoms: _393  and  _396
REMARK  164  A    between atoms: _399  and  _401
REMARK  165  A    between atoms: _401  and  _402
REMARK  166  A    between atoms: _404  and  _406
REMARK  167  A    between atoms: _406  and  _407
REMARK  168  A    between atoms: _409  and  _411
REMARK  169  A    between atoms: _411  and  _412
REMARK  170  A    between atoms: _411  and  _414
REMARK  171  A    between atoms: _414  and  _415
REMARK  172  A    between atoms: _420  and  _422
REMARK  173  A    between atoms: _422  and  _423
REMARK  174  A    between atoms: _422  and  _425
REMARK  175  A    between atoms: _428  and  _430
REMARK  176  A    between atoms: _430  and  _431
REMARK  177  A    between atoms: _430  and  _433
REMARK  178  A    between atoms: _433  and  _434
REMARK  179  A    between atoms: _437  and  _439
REMARK  180  A    between atoms: _439  and  _440
REMARK  181  A    between atoms: _439  and  _442
REMARK  182  A    between atoms: _442  and  _443
REMARK  183  A    between atoms: _446  and  _448
REMARK  184  A    between atoms: _448  and  _449
REMARK  185  A    between atoms: _448  and  _451
REMARK  186  A    between atoms: _451  and  _452
REMARK  187  A    between atoms: _456  and  _457
REMARK  188  A    between atoms: _462  and  _464
REMARK  189  A    between atoms: _464  and  _465
REMARK  190  A    between atoms: _464  and  _467
REMARK  191  A    between atoms: _470  and  _472
REMARK  192  A    between atoms: _472  and  _473
REMARK  193  A    between atoms: _472  and  _475
REMARK  194  A    between atoms: _475  and  _476
REMARK  195  A    between atoms: _479  and  _481
REMARK  196  A    between atoms: _481  and  _482
REMARK  197  A    between atoms: _481  and  _484
REMARK  198  A    between atoms: _484  and  _485
REMARK  199  A    between atoms: _488  and  _490
REMARK  200  A    between atoms: _490  and  _491
REMARK  201  A    between atoms: _493  and  _495
REMARK  202  A    between atoms: _495  and  _496
REMARK  203  A    between atoms: _495  and  _498
REMARK  204  A    between atoms: _498  and  _499
REMARK  205  A    between atoms: _499  and  _500
REMARK  206  A    between atoms: _500  and  _501
REMARK                            x       y       z     vdW  Elec       q    Type
REMARK                         _______ _______ _______ _____ _____    ______ ____
ROOT
ATOM      1  C   GLY A   5       2.988  14.787   2.030  0.00  0.00    +0.243 C 
ATOM      2  N   ALA A   6       2.496  14.473   3.236  0.00  0.00    -0.297 N 
ATOM      3  H   ALA A   6       2.088  13.527   3.379  0.00  0.00    +0.150 HD
ATOM      4  O   GLY A   5       3.458  15.912   1.808  0.00  0.00    -0.273 OA
ENDROOT
BRANCH   2   5
ATOM      5  CA  ALA A   6       2.511  15.407   4.354  0.00  0.00    +0.149 C 
ATOM      6  CB  ALA A   6       1.104  15.547   4.993  0.00  0.00    +0.031 C 
BRANCH   5   7
ATOM      7  C   ALA A   6       3.470  14.782   5.339  0.00  0.00    +0.241 C 
ATOM      8  O   ALA A   6       3.381  13.638   5.796  0.00  0.00    -0.273 OA
ATOM      9  N   ASP A   7       4.482  15.603   5.716  0.00  0.00    -0.297 N 
ATOM     10  H   ASP A   7       4.544  16.563   5.321  0.00  0.00    +0.150 HD
BRANCH   9  11
ATOM     11  CA  ASP A   7       5.479  15.147   6.668  0.00  0.00    +0.160 C 
BRANCH  11  12
ATOM     12  C   ASP A   7       4.938  14.946   8.088  0.00  0.00    +0.241 C 
ATOM     13  O   ASP A   7       5.438  14.114   8.852  0.00  0.00    -0.273 OA
ATOM     14  N   THR A   8       3.924  15.745   8.364  0.00  0.00    -0.295 N 
ATOM     15  H   THR A   8       3.547  16.375   7.627  0.00  0.00    +0.150 HD
BRANCH  14  16
ATOM     16  CA  THR A   8       3.329  15.751   9.694  0.00  0.00    +0.176 C 
BRANCH  16  17
ATOM     17  C   THR A   8       1.818  15.961   9.573  0.00  0.00    +0.243 C 
ATOM     18  N   SER A   9       1.076  15.581  10.611  0.00  0.00    -0.295 N 
ATOM     19  H   SER A   9       1.559  15.223  11.460  0.00  0.00    +0.150 HD
ATOM     20  O   THR A   8       1.301  16.407   8.554  0.00  0.00    -0.273 OA
BRANCH  18  21
ATOM     21  CA  SER A   9      -0.396  15.642  10.617  0.00  0.00    +0.178 C 
BRANCH  21  22
ATOM     22  C   SER A   9      -0.921  17.003  11.075  0.00  0.00    +0.243 C 
ATOM     23  O   SER A   9      -0.312  17.563  12.004  0.00  0.00    -0.273 OA
ATOM     24  N   VAL A  10      -1.984  17.468  10.445  0.00  0.00    -0.298 N 
ATOM     25  H   VAL A  10      -2.445  16.908   9.700  0.00  0.00    +0.150 HD
BRANCH  24  26
ATOM     26  CA  VAL A  10      -2.501  18.782  10.813  0.00  0.00    +0.137 C 
BRANCH  26  27
ATOM     27  CB  VAL A  10      -2.153  19.775   9.659  0.00  0.00    +0.026 C 
ATOM     28  CG2 VAL A  10      -2.490  21.227  10.016  0.00  0.00    +0.002 C 
ATOM     29  CG1 VAL A  10      -0.634  19.716   9.400  0.00  0.00    +0.002 C 
ENDBRANCH  26  27
BRANCH  26  30
ATOM     30  C   VAL A  10      -4.020  18.743  10.896  0.00  0.00    +0.227 C 
ATOM     31  O   VAL A  10      -4.730  18.311  10.005  0.00  0.00    -0.286 OA
ENDBRANCH  26  30
ENDBRANCH  24  26
ENDBRANCH  21  22
BRANCH  21  32
ATOM     32  CB  SER A   9      -0.877  14.545  11.533  0.00  0.00    +0.166 C 
BRANCH  32  33
ATOM     33  OG  SER A   9      -0.446  13.279  11.028  0.00  0.00    -0.380 OA
ATOM     34  H   SER A   9       0.543  13.262  10.983  0.00  0.00    +0.211 HD
ENDBRANCH  32  33
ENDBRANCH  21  32
ENDBRANCH  18  21
ENDBRANCH  16  17
BRANCH  16  35
ATOM     35  CB  THR A   8       4.052  16.880  10.482  0.00  0.00    +0.137 C 
ATOM     36  CG2 THR A   8       3.544  18.244  10.079  0.00  0.00    +0.034 C 
BRANCH  35  37
ATOM     37  OG1 THR A   8       3.640  16.724  11.836  0.00  0.00    -0.382 OA
ATOM     38  HG1 THR A   8       2.656  16.816  11.893  0.00  0.00    +0.210 HD
ENDBRANCH  35  37
ENDBRANCH  16  35
ENDBRANCH  14  16
ENDBRANCH  11  12
BRANCH  11  39
ATOM     39  CB  ASP A   7       6.598  16.194   6.866  0.00  0.00    +0.143 C 
BRANCH  39  40
ATOM     40  CG  ASP A   7       7.466  16.281   5.621  0.00  0.00    +0.367 C 
ATOM     41  OD2 ASP A   7       8.121  17.315   5.520  0.00  0.00    -0.246 OA
ATOM     42  OD1 ASP A   7       7.576  15.398   4.750  0.00  0.00    -0.246 OA
ENDBRANCH  39  40
ENDBRANCH  11  39
ENDBRANCH   9  11
ENDBRANCH   5   7
ENDBRANCH   2   5
BRANCH   1  43
ATOM     43  CA  GLY A   5       2.949  13.868   0.837  0.00  0.00    +0.176 C 
BRANCH  43  46
ATOM     44  C   THR A   4       2.677  11.582   1.755  0.00  0.00    +0.243 C 
ATOM     45  O   THR A   4       3.861  11.446   2.063  0.00  0.00    -0.273 OA
ATOM     46  N   GLY A   5       2.207  12.642   1.140  0.00  0.00    -0.295 N 
ATOM     47  H   GLY A   5       1.212  12.608   0.839  0.00  0.00    +0.150 HD
BRANCH  44  48
ATOM     48  CA  THR A   4       1.769  10.396   2.077  0.00  0.00    +0.176 C 
BRANCH  48  51
ATOM     49  C   ASP A   3      -0.091  11.632   2.986  0.00  0.00    +0.241 C 
ATOM     50  O   ASP A   3       0.570  12.117   3.920  0.00  0.00    -0.273 OA
ATOM     51  N   THR A   4       0.337  10.788   2.036  0.00  0.00    -0.295 N 
ATOM     52  H   THR A   4      -0.305  10.424   1.303  0.00  0.00    +0.150 HD
BRANCH  49  53
ATOM     53  CA  ASP A   3      -1.569  11.933   2.901  0.00  0.00    +0.160 C 
BRANCH  53  55
ATOM     54  C   LEU A   2      -3.451  10.503   3.294  0.00  0.00    +0.241 C 
ATOM     55  N   ASP A   3      -2.462  11.217   3.801  0.00  0.00    -0.297 N 
ATOM     56  H   ASP A   3      -2.323  11.267   4.830  0.00  0.00    +0.150 HD
ATOM     57  O   LEU A   2      -3.651  10.270   2.107  0.00  0.00    -0.273 OA
BRANCH  54  58
ATOM     58  CA  LEU A   2      -4.420  10.022   4.402  0.00  0.00    +0.149 C 
BRANCH  58  61
ATOM     59  C   LEU A   1      -6.024  11.873   4.748  0.00  0.00    +0.238 C 
ATOM     60  O   LEU A   1      -5.290  12.371   5.610  0.00  0.00    -0.274 OA
ATOM     61  N   LEU A   2      -5.692  10.741   4.072  0.00  0.00    -0.297 N 
ATOM     62  H   LEU A   2      -6.320  10.375   3.328  0.00  0.00    +0.150 HD
BRANCH  59  63
ATOM     63  CA  LEU A   1      -7.297  12.652   4.417  0.00  0.00    +0.145 C 
BRANCH  63  64
ATOM     64  N   LEU A   1      -7.904  13.030   5.695  0.00  0.00    -0.238 NA
ATOM     65  H   LEU A   1      -7.610  13.910   6.166  0.00  0.00    +0.142 HD
ENDBRANCH  63  64
BRANCH  63  66
ATOM     66  CB  LEU A   1      -6.909  13.863   3.567  0.00  0.00    +0.026 C 
BRANCH  66  67
ATOM     67  CG  LEU A   1      -6.134  13.651   2.271  0.00  0.00    +0.002 C 
ATOM     68  CD2 LEU A   1      -5.765  15.003   1.660  0.00  0.00    +0.000 C 
ATOM     69  CD1 LEU A   1      -6.953  12.865   1.286  0.00  0.00    +0.000 C 
ENDBRANCH  66  67
ENDBRANCH  63  66
ENDBRANCH  59  63
ENDBRANCH  58  61
BRANCH  58  70
ATOM     70  CB  LEU A   2      -4.716   8.543   4.211  0.00  0.00    +0.029 C 
BRANCH  70  71
ATOM     71  CG  LEU A   2      -5.900   8.120   5.145  0.00  0.00    +0.002 C 
ATOM     72  CD2 LEU A   2      -5.506   8.219   6.581  0.00  0.00    +0.000 C 
ATOM     73  CD1 LEU A   2      -6.206   6.651   4.820  0.00  0.00    +0.000 C 
ENDBRANCH  70  71
ENDBRANCH  58  70
ENDBRANCH  54  58
ENDBRANCH  53  55
BRANCH  53  74
ATOM     74  CB  ASP A   3      -1.830  13.438   3.160  0.00  0.00    +0.143 C 
BRANCH  74  75
ATOM     75  CG  ASP A   3      -1.119  14.401   2.231  0.00  0.00    +0.367 C 
ATOM     76  OD2 ASP A   3      -1.224  15.590   2.531  0.00  0.00    -0.246 OA
ATOM     77  OD1 ASP A   3      -0.451  13.963   1.294  0.00  0.00    -0.246 OA
ENDBRANCH  74  75
ENDBRANCH  53  74
ENDBRANCH  49  53
ENDBRANCH  48  51
BRANCH  48  78
ATOM     78  CB  THR A   4       2.098   9.257   1.125  0.00  0.00    +0.137 C 
ATOM     79  CG2 THR A   4       1.226   8.035   1.453  0.00  0.00    +0.034 C 
BRANCH  78  80
ATOM     80  OG1 THR A   4       1.682   9.707  -0.175  0.00  0.00    -0.382 OA
ATOM     81  HG1 THR A   4       2.178  10.530  -0.412  0.00  0.00    +0.210 HD
ENDBRANCH  78  80
ENDBRANCH  48  78
ENDBRANCH  44  48
ENDBRANCH  43  46
ENDBRANCH   1  43
TORSDOF 35
REMARK  Name = ../refined-set-2016/2fmb/2fmb_pocket.pdb
REMARK  206 active torsions:
REMARK  status: ('A' for Active; 'I' for Inactive)
REMARK    1  A    between atoms: _1  and  _3
REMARK    2  A    between atoms: _3  and  _4
REMARK    3  A    between atoms: _3  and  _6
REMARK    4  A    between atoms: _6  and  _7
REMARK    5  A    between atoms: _7  and  _8
REMARK    6  A    between atoms: _8  and  _9
REMARK    7  A    between atoms: _18  and  _20
REMARK    8  A    between atoms: _20  and  _21
REMARK    9  A    between atoms: _20  and  _23
REMARK   10  A    between atoms: _23  and  _24
REMARK   11  A    between atoms: _27  and  _29
REMARK   12  A    between atoms: _29  and  _30
REMARK   13  A    between atoms: _29  and  _32
REMARK   14  A    between atoms: _32  and  _33
REMARK   15  A    between atoms: _36  and  _38
REMARK   16  A    between atoms: _38  and  _39
REMARK   17  A    between atoms: _38  and  _41
REMARK   18  A    between atoms: _41  and  _42
REMARK   19  A    between atoms: _45  and  _47
REMARK   20  A    between atoms: _47  and  _48
REMARK   21  A    between atoms: _47  and  _50
REMARK   22  A    between atoms: _50  and  _51
REMARK   23  A    between atoms: _54  and  _56
REMARK   24  A    between atoms: _56  and  _57
REMARK   25  A    between atoms: _59  and  _61
REMARK   26  A    between atoms: _61  and  _62
REMARK   27  A    between atoms: _65  and  _67
REMARK   28  A    between atoms: _67  and  _68
REMARK   29  A    between atoms: _67  and  _70
REMARK   30  A    between atoms: _70  and  _71
REMARK   31  A    between atoms: _74  and  _76
REMARK   32  A    between atoms: _76  and  _77
REMARK   33  A    between atoms: _76  and  _79
REMARK   34  A    between atoms: _79  and  _80
REMARK   35  A    between atoms: _83  and  _85
REMARK   36  A    between atoms: _85  and  _86
REMARK   37  A    between atoms: _85  and  _88
REMARK   38  A    between atoms: _88  and  _89
REMARK   39  A    between atoms: _91  and  _93
REMARK   40  A    between atoms: _93  and  _94
REMARK   41  A    between atoms: _93  and  _96
REMARK   42  A    between atoms: _99  and  _101
REMARK   43  A    between atoms: _101  and  _102
REMARK   44  A    between atoms: _101  and  _104
REMARK   45  A    between atoms: _104  and  _105
REMARK   46  A    between atoms: _108  and  _110
REMARK   47  A    between atoms: _110  and  _111
REMARK   48  A    between atoms: _113  and  _115
REMARK   49  A    between atoms: _115  and  _116
REMARK   50  A    between atoms: _115  and  _118
REMARK   51  A    between atoms: _118  and  _119
REMARK   52  A    between atoms: _122  and  _124
REMARK   53  A    between atoms: _124  and  _125
REMARK   54  A    between atoms: _127  and  _129
REMARK   55  A    between atoms: _129  and  _130
REMARK   56  A    between atoms: _132  and  _134
REMARK   57  A    between atoms: _134  and  _135
REMARK   58  A    between atoms: _134  and  _137
REMARK   59  A    between atoms: _140  and  _142
REMARK   60  A    between atoms: _142  and  _143
REMARK   61  A    between atoms: _145  and  _147
REMARK   62  A    between atoms: _147  and  _148
REMARK   63  A    between atoms: _150  and  _152
REMARK   64  A    between atoms: _152  and  _153
REMARK   65  A    between atoms: _152  and  _155
REMARK   66  A    between atoms: _155  and  _156
REMARK   67  A    between atoms: _161  and  _163
REMARK   68  A    between atoms: _163  and  _164
REMARK   69  A    between atoms: _163  and  _166
REMARK   70  A    between atoms: _169  and  _171
REMARK   71  A    between atoms: _171  and  _172
REMARK   72  A    between atoms: _171  and  _174
REMARK   73  A    between atoms: _174  and  _175
REMARK   74  A    between atoms: _178  and  _180
REMARK   75  A    between atoms: _180  and  _181
REMARK   76  A    between atoms: _180  and  _183
REMARK   77  A    between atoms: _183  and  _184
REMARK   78  A    between atoms: _188  and  _189
REMARK   79  A    between atoms: _194  and  _196
REMARK   80  A    between atoms: _196  and  _197
REMARK   81  A    between atoms: _196  and  _199
REMARK   82  A    between atoms: _202  and  _204
REMARK   83  A    between atoms: _204  and  _205
REMARK   84  A    between atoms: _204  and  _207
REMARK   85  A    between atoms: _207  and  _208
REMARK   86  A    between atoms: _211  and  _213
REMARK   87  A    between atoms: _213  and  _214
REMARK   88  A    between atoms: _213  and  _216
REMARK   89  A    between atoms: _216  and  _217
REMARK   90  A    between atoms: _220  and  _222
REMARK   91  A    between atoms: _222  and  _223
REMARK   92  A    between atoms: _222  and  _225
REMARK   93  A    between atoms: _225  and  _226
REMARK   94  A    between atoms: _229  and  _231
REMARK   95  A    between atoms: _231  and  _232
REMARK   96  A    between atoms: _234  and  _236
REMARK   97  A    between atoms: _236  and  _237
REMARK   98  A    between atoms: _236  and  _239
REMARK   99  A    between atoms: _239  and  _240
REMARK  100  A    between atoms: _240  and  _241
REMARK  101  A    between atoms: _241  and  _242
REMARK  102  A    between atoms: _251  and  _253
REMARK  103  A    between atoms: _253  and  _254
REMARK  104  A    between atoms: _253  and  _256
REMARK  105  A    between atoms: _256  and  _257
REMARK  106  A    between atoms: _257  and  _258
REMARK  107  A    between atoms: _258  and  _259
REMARK  108  A    between atoms: _268  and  _270
REMARK  109  A    between atoms: _270  and  _271
REMARK  110  A    between atoms: _270  and  _273
REMARK  111  A    between atoms: _273  and  _274
REMARK  112  A    between atoms: _277  and  _279
REMARK  113  A    between atoms: _279  and  _280
REMARK  114  A    between atoms: _279  and  _282
REMARK  115  A    between atoms: _282  and  _283
REMARK  116  A    between atoms: _286  and  _288
REMARK  117  A    between atoms: _288  and  _289
REMARK  118  A    between atoms: _288  and  _291
REMARK  119  A    between atoms: _291  and  _292
REMARK  120  A    between atoms: _295  and  _297
REMARK  121  A    between atoms: _297  and  _298
REMARK  122  A    between atoms: _297  and  _300
REMARK  123  A    between atoms: _300  and  _301
REMARK  124  A    between atoms: _304  and  _306
REMARK  125  A    between atoms: _306  and  _307
REMARK  126  A    between atoms: _306  and  _309
REMARK  127  A    between atoms: _309  and  _310
REMARK  128  A    between atoms: _313  and  _315
REMARK  129  A    between atoms: _315  and  _316
REMARK  130  A    between atoms: _318  and  _320
REMARK  131  A    between atoms: _320  and  _321
REMARK  132  A    between atoms: _324  and  _326
REMARK  133  A    between atoms: _326  and  _327
REMARK  134  A    between atoms: _326  and  _329
REMARK  135  A    between atoms: _329  and  _330
REMARK  136  A    between atoms: _333  and  _335
REMARK  137  A    between atoms: _335  and  _336
REMARK  138  A    between atoms: _335  and  _338
REMARK  139  A    between atoms: _338  and  _339
REMARK  140  A    between atoms: _342  and  _344
REMARK  141  A    between atoms: _344  and  _345
REMARK  142  A    between atoms: _344  and  _347
REMARK  143  A    between atoms: _347  and  _348
REMARK  144  A    between atoms: _350  and  _352
REMARK  145  A    between atoms: _352  and  _353
REMARK  146  A    between atoms: _352  and  _355
REMARK  147  A    between atoms: _358  and  _360
REMARK  148  A    between atoms: _360  and  _361
REMARK  149  A    between atoms: _360  and  _363
REMARK  150  A    between atoms: _363  and  _364
REMARK  151  A    between atoms: _367  and  _369
REMARK  152  A    between atoms: _369  and  _370
REMARK  153  A    between atoms: _372  and  _374
REMARK  154  A    between atoms: _374  and  _375
REMARK  155  A    between atoms: _374  and  _377
REMARK  156  A    between atoms: _377  and  _378
REMARK  157  A    between atoms: _381  and  _383
REMARK  158  A    between atoms: _383  and  _384
REMARK  159  A    between atoms: _386  and  _388
REMARK  160  A    between atoms: _388  and  _389
REMARK  161  A    between atoms: _391  and  _393
REMARK  162  A    between atoms: _393  and  _394
REMARK  163  A    between atoms: _393  and  _396
REMARK  164  A    between atoms: _399  and  _401
REMARK  165  A    between atoms: _401  and  _402
REMARK  166  A    between atoms: _404  and  _406
REMARK  167  A    between atoms: _406  and  _407
REMARK  168  A    between atoms: _409  and  _411
REMARK  169  A    between atoms: _411  and  _412
REMARK  170  A    between atoms: _411  and  _414
REMARK  171  A    between atoms: _414  and  _415
REMARK  172  A    between atoms: _420  and  _422
REMARK  173  A    between atoms: _422  and  _423
REMARK  174  A    between atoms: _422  and  _425
REMARK  175  A    between atoms: _428  and  _430
REMARK  176  A    between atoms: _430  and  _431
REMARK  177  A    between atoms: _430  and  _433
REMARK  178  A    between atoms: _433  and  _434
REMARK  179  A    between atoms: _437  and  _439
REMARK  180  A    between atoms: _439  and  _440
REMARK  181  A    between atoms: _439  and  _442
REMARK  182  A    between atoms: _442  and  _443
REMARK  183  A    between atoms: _446  and  _448
REMARK  184  A    between atoms: _448  and  _449
REMARK  185  A    between atoms: _448  and  _451
REMARK  186  A    between atoms: _451  and  _452
REMARK  187  A    between atoms: _456  and  _457
REMARK  188  A    between atoms: _462  and  _464
REMARK  189  A    between atoms: _464  and  _465
REMARK  190  A    between atoms: _464  and  _467
REMARK  191  A    between atoms: _470  and  _472
REMARK  192  A    between atoms: _472  and  _473
REMARK  193  A    between atoms: _472  and  _475
REMARK  194  A    between atoms: _475  and  _476
REMARK  195  A    between atoms: _479  and  _481
REMARK  196  A    between atoms: _481  and  _482
REMARK  197  A    between atoms: _481  and  _484
REMARK  198  A    between atoms: _484  and  _485
REMARK  199  A    between atoms: _488  and  _490
REMARK  200  A    between atoms: _490  and  _491
REMARK  201  A    between atoms: _493  and  _495
REMARK  202  A    between atoms: _495  and  _496
REMARK  203  A    between atoms: _495  and  _498
REMARK  204  A    between atoms: _498  and  _499
REMARK  205  A    between atoms: _499  and  _500
REMARK  206  A    between atoms: _500  and  _501
REMARK                            x       y       z     vdW  Elec       q    Type
REMARK                         _______ _______ _______ _____ _____    ______ ____
ROOT
ATOM      1  C   GLY A   5       2.870  24.467  -0.256  0.00  0.00    +0.243 C 
ATOM      2  O   GLY A   5       3.678  25.429  -0.438  0.00  0.00    -0.273 OA
ATOM      3  N   VAL A   6       2.015  24.039  -1.172  0.00  0.00    -0.297 N 
ATOM      4  H   VAL A   6       1.387  23.246  -0.931  0.00  0.00    +0.150 HD
ENDROOT
BRANCH   3   5
ATOM      5  CA  VAL A   6       1.912  24.627  -2.506  0.00  0.00    +0.149 C 
BRANCH   5   6
ATOM      6  C   VAL A   6       1.733  26.139  -2.473  0.00  0.00    +0.241 C 
ATOM      7  N   GLY A   7       0.916  26.695  -1.575  0.00  0.00    -0.295 N 
ATOM      8  H   GLY A   7       0.431  26.083  -0.888  0.00  0.00    +0.150 HD
ATOM      9  O   VAL A   6       2.363  26.839  -3.278  0.00  0.00    -0.273 OA
BRANCH   7  10
ATOM     10  CA  GLY A   7       0.683  28.133  -1.528  0.00  0.00    +0.176 C 
BRANCH  10  11
ATOM     11  C   GLY A   7       1.551  28.971  -0.608  0.00  0.00    +0.243 C 
ATOM     12  N   GLY A   8       2.594  28.433   0.001  0.00  0.00    -0.295 N 
ATOM     13  H   GLY A   8       2.808  27.430  -0.171  0.00  0.00    +0.150 HD
ATOM     14  O   GLY A   7       1.280  30.177  -0.460  0.00  0.00    -0.273 OA
BRANCH  12  15
ATOM     15  CA  GLY A   8       3.450  29.179   0.896  0.00  0.00    +0.176 C 
BRANCH  15  16
ATOM     16  C   GLY A   8       3.392  28.558   2.300  0.00  0.00    +0.243 C 
ATOM     17  N   ASN A   9       3.646  29.372   3.317  0.00  0.00    -0.297 N 
ATOM     18  H   ASN A   9       3.813  30.381   3.128  0.00  0.00    +0.150 HD
ATOM     19  O   GLY A   8       3.108  27.372   2.436  0.00  0.00    -0.273 OA
BRANCH  17  20
ATOM     20  CA  ASN A   9       3.697  28.896   4.678  0.00  0.00    +0.158 C 
BRANCH  20  21
ATOM     21  C   ASN A   9       2.492  29.335   5.487  0.00  0.00    +0.241 C 
ATOM     22  N   VAL A  10       2.198  28.534   6.535  0.00  0.00    -0.298 N 
ATOM     23  H   VAL A  10       2.767  27.695   6.765  0.00  0.00    +0.150 HD
ATOM     24  O   ASN A   9       1.995  30.368   5.057  0.00  0.00    -0.273 OA
BRANCH  22  25
ATOM     25  CA  VAL A  10       1.028  28.921   7.326  0.00  0.00    +0.137 C 
BRANCH  25  26
ATOM     26  CB  VAL A  10      -0.053  28.066   6.652  0.00  0.00    +0.026 C 
ATOM     27  CG2 VAL A  10      -0.300  26.814   7.429  0.00  0.00    +0.002 C 
ATOM     28  CG1 VAL A  10      -1.306  28.807   6.279  0.00  0.00    +0.002 C 
ENDBRANCH  25  26
BRANCH  25  29
ATOM     29  C   VAL A  10       1.445  28.669   8.760  0.00  0.00    +0.227 C 
ATOM     30  O   VAL A  10       2.187  27.747   9.052  0.00  0.00    -0.286 OA
ENDBRANCH  25  29
ENDBRANCH  22  25
ENDBRANCH  20  21
BRANCH  20  31
ATOM     31  CB  ASN A   9       4.906  29.569   5.354  0.00  0.00    +0.114 C 
BRANCH  31  32
ATOM     32  CG  ASN A   9       6.232  29.162   4.704  0.00  0.00    +0.222 C 
ATOM     33  OD1 ASN A   9       6.490  27.989   4.449  0.00  0.00    -0.275 OA
ATOM     34  ND2 ASN A   9       7.059  30.159   4.401  0.00  0.00    -0.329 N 
ATOM     35 HD21 ASN A   9       6.800  31.139   4.635  0.00  0.00    +0.145 HD
ATOM     36 HD22 ASN A   9       7.964  29.959   3.930  0.00  0.00    +0.145 HD
ENDBRANCH  31  32
ENDBRANCH  20  31
ENDBRANCH  17  20
ENDBRANCH  15  16
ENDBRANCH  12  15
ENDBRANCH  10  11
ENDBRANCH   7  10
ENDBRANCH   5   6
BRANCH   5  37
ATOM     37  CB  VAL A   6       0.769  23.868  -3.214  0.00  0.00    +0.027 C 
ATOM     38  CG2 VAL A   6       1.317  22.649  -3.953  0.00  0.00    +0.002 C 
ATOM     39  CG1 VAL A   6      -0.069  24.697  -4.161  0.00  0.00    +0.002 C 
ENDBRANCH   5  37
ENDBRANCH   3   5
BRANCH   1  40
ATOM     40  CA  GLY A   5       2.818  23.632   1.032  0.00  0.00    +0.176 C 
BRANCH  40  43
ATOM     41  C   GLY A   4       3.979  23.887   3.130  0.00  0.00    +0.243 C 
ATOM     42  O   GLY A   4       3.910  22.694   3.436  0.00  0.00    -0.273 OA
ATOM     43  N   GLY A   5       3.505  24.460   2.038  0.00  0.00    -0.295 N 
ATOM     44  H   GLY A   5       3.616  25.484   1.890  0.00  0.00    +0.150 HD
BRANCH  41  45
ATOM     45  CA  GLY A   4       4.620  24.908   4.043  0.00  0.00    +0.176 C 
BRANCH  45  48
ATOM     46  C   ILE A   3       4.208  25.077   6.434  0.00  0.00    +0.241 C 
ATOM     47  O   ILE A   3       3.618  26.163   6.313  0.00  0.00    -0.273 OA
ATOM     48  N   GLY A   4       4.660  24.397   5.392  0.00  0.00    -0.295 N 
ATOM     49  H   GLY A   4       5.062  23.452   5.553  0.00  0.00    +0.150 HD
BRANCH  46  50
ATOM     50  CA  ILE A   3       4.294  24.413   7.798  0.00  0.00    +0.149 C 
BRANCH  50  53
ATOM     51  C   GLY A   2       4.859  25.519   9.871  0.00  0.00    +0.243 C 
ATOM     52  O   GLY A   2       5.596  24.608  10.237  0.00  0.00    -0.273 OA
ATOM     53  N   ILE A   3       4.141  25.497   8.761  0.00  0.00    -0.297 N 
ATOM     54  H   ILE A   3       3.460  26.260   8.573  0.00  0.00    +0.150 HD
BRANCH  51  55
ATOM     55  CA  GLY A   2       4.585  26.747  10.677  0.00  0.00    +0.176 C 
BRANCH  55  57
ATOM     56  C   THR A   1       6.406  27.069  12.327  0.00  0.00    +0.241 C 
ATOM     57  N   GLY A   2       5.166  26.863  11.954  0.00  0.00    -0.295 N 
ATOM     58  H   GLY A   2       4.492  26.769  12.741  0.00  0.00    +0.150 HD
ATOM     59  O   THR A   1       7.299  27.126  11.485  0.00  0.00    -0.274 OA
BRANCH  56  60
ATOM     60  CA  THR A   1       6.746  27.309  13.804  0.00  0.00    +0.172 C 
BRANCH  60  61
ATOM     61  N   THR A   1       5.964  26.554  14.792  0.00  0.00    -0.236 NA
ATOM     62  H   THR A   1       6.015  25.516  14.767  0.00  0.00    +0.142 HD
ENDBRANCH  60  61
BRANCH  60  63
ATOM     63  CB  THR A   1       8.235  26.950  13.892  0.00  0.00    +0.135 C 
ATOM     64  CG2 THR A   1       8.774  27.242  15.292  0.00  0.00    +0.034 C 
BRANCH  63  65
ATOM     65  OG1 THR A   1       8.359  25.532  13.619  0.00  0.00    -0.383 OA
ATOM     66  HG1 THR A   1       8.010  25.340  12.713  0.00  0.00    +0.210 HD
ENDBRANCH  63  65
ENDBRANCH  60  63
ENDBRANCH  56  60
ENDBRANCH  55  57
ENDBRANCH  51  55
ENDBRANCH  50  53
BRANCH  50  67
ATOM     67  CB  ILE A   3       3.184  23.321   7.872  0.00  0.00    +0.027 C 
ATOM     68  CG2 ILE A   3       3.379  22.382   9.030  0.00  0.00    +0.002 C 
BRANCH  67  69
ATOM     69  CG1 ILE A   3       1.856  24.035   7.784  0.00  0.00    +0.002 C 
ATOM     70  CD1 ILE A   3       0.680  23.144   7.548  0.00  0.00    +0.000 C 
ENDBRANCH  67  69
ENDBRANCH  50  67
ENDBRANCH  46  50
ENDBRANCH  45  48
ENDBRANCH  41  45
ENDBRANCH  40  43
ENDBRANCH   1  40
TORSDOF 28
REMARK  Name = ../refined-set-2016/2fmb/2fmb_pocket.pdb
REMARK  206 active torsions:
REMARK  status: ('A' for Active; 'I' for Inactive)
REMARK    1  A    between atoms: _1  and  _3
REMARK    2  A    between atoms: _3  and  _4
REMARK    3  A    between atoms: _3  and  _6
REMARK    4  A    between atoms: _6  and  _7
REMARK    5  A    between atoms: _7  and  _8
REMARK    6  A    between atoms: _8  and  _9
REMARK    7  A    between atoms: _18  and  _20
REMARK    8  A    between atoms: _20  and  _21
REMARK    9  A    between atoms: _20  and  _23
REMARK   10  A    between atoms: _23  and  _24
REMARK   11  A    between atoms: _27  and  _29
REMARK   12  A    between atoms: _29  and  _30
REMARK   13  A    between atoms: _29  and  _32
REMARK   14  A    between atoms: _32  and  _33
REMARK   15  A    between atoms: _36  and  _38
REMARK   16  A    between atoms: _38  and  _39
REMARK   17  A    between atoms: _38  and  _41
REMARK   18  A    between atoms: _41  and  _42
REMARK   19  A    between atoms: _45  and  _47
REMARK   20  A    between atoms: _47  and  _48
REMARK   21  A    between atoms: _47  and  _50
REMARK   22  A    between atoms: _50  and  _51
REMARK   23  A    between atoms: _54  and  _56
REMARK   24  A    between atoms: _56  and  _57
REMARK   25  A    between atoms: _59  and  _61
REMARK   26  A    between atoms: _61  and  _62
REMARK   27  A    between atoms: _65  and  _67
REMARK   28  A    between atoms: _67  and  _68
REMARK   29  A    between atoms: _67  and  _70
REMARK   30  A    between atoms: _70  and  _71
REMARK   31  A    between atoms: _74  and  _76
REMARK   32  A    between atoms: _76  and  _77
REMARK   33  A    between atoms: _76  and  _79
REMARK   34  A    between atoms: _79  and  _80
REMARK   35  A    between atoms: _83  and  _85
REMARK   36  A    between atoms: _85  and  _86
REMARK   37  A    between atoms: _85  and  _88
REMARK   38  A    between atoms: _88  and  _89
REMARK   39  A    between atoms: _91  and  _93
REMARK   40  A    between atoms: _93  and  _94
REMARK   41  A    between atoms: _93  and  _96
REMARK   42  A    between atoms: _99  and  _101
REMARK   43  A    between atoms: _101  and  _102
REMARK   44  A    between atoms: _101  and  _104
REMARK   45  A    between atoms: _104  and  _105
REMARK   46  A    between atoms: _108  and  _110
REMARK   47  A    between atoms: _110  and  _111
REMARK   48  A    between atoms: _113  and  _115
REMARK   49  A    between atoms: _115  and  _116
REMARK   50  A    between atoms: _115  and  _118
REMARK   51  A    between atoms: _118  and  _119
REMARK   52  A    between atoms: _122  and  _124
REMARK   53  A    between atoms: _124  and  _125
REMARK   54  A    between atoms: _127  and  _129
REMARK   55  A    between atoms: _129  and  _130
REMARK   56  A    between atoms: _132  and  _134
REMARK   57  A    between atoms: _134  and  _135
REMARK   58  A    between atoms: _134  and  _137
REMARK   59  A    between atoms: _140  and  _142
REMARK   60  A    between atoms: _142  and  _143
REMARK   61  A    between atoms: _145  and  _147
REMARK   62  A    between atoms: _147  and  _148
REMARK   63  A    between atoms: _150  and  _152
REMARK   64  A    between atoms: _152  and  _153
REMARK   65  A    between atoms: _152  and  _155
REMARK   66  A    between atoms: _155  and  _156
REMARK   67  A    between atoms: _161  and  _163
REMARK   68  A    between atoms: _163  and  _164
REMARK   69  A    between atoms: _163  and  _166
REMARK   70  A    between atoms: _169  and  _171
REMARK   71  A    between atoms: _171  and  _172
REMARK   72  A    between atoms: _171  and  _174
REMARK   73  A    between atoms: _174  and  _175
REMARK   74  A    between atoms: _178  and  _180
REMARK   75  A    between atoms: _180  and  _181
REMARK   76  A    between atoms: _180  and  _183
REMARK   77  A    between atoms: _183  and  _184
REMARK   78  A    between atoms: _188  and  _189
REMARK   79  A    between atoms: _194  and  _196
REMARK   80  A    between atoms: _196  and  _197
REMARK   81  A    between atoms: _196  and  _199
REMARK   82  A    between atoms: _202  and  _204
REMARK   83  A    between atoms: _204  and  _205
REMARK   84  A    between atoms: _204  and  _207
REMARK   85  A    between atoms: _207  and  _208
REMARK   86  A    between atoms: _211  and  _213
REMARK   87  A    between atoms: _213  and  _214
REMARK   88  A    between atoms: _213  and  _216
REMARK   89  A    between atoms: _216  and  _217
REMARK   90  A    between atoms: _220  and  _222
REMARK   91  A    between atoms: _222  and  _223
REMARK   92  A    between atoms: _222  and  _225
REMARK   93  A    between atoms: _225  and  _226
REMARK   94  A    between atoms: _229  and  _231
REMARK   95  A    between atoms: _231  and  _232
REMARK   96  A    between atoms: _234  and  _236
REMARK   97  A    between atoms: _236  and  _237
REMARK   98  A    between atoms: _236  and  _239
REMARK   99  A    between atoms: _239  and  _240
REMARK  100  A    between atoms: _240  and  _241
REMARK  101  A    between atoms: _241  and  _242
REMARK  102  A    between atoms: _251  and  _253
REMARK  103  A    between atoms: _253  and  _254
REMARK  104  A    between atoms: _253  and  _256
REMARK  105  A    between atoms: _256  and  _257
REMARK  106  A    between atoms: _257  and  _258
REMARK  107  A    between atoms: _258  and  _259
REMARK  108  A    between atoms: _268  and  _270
REMARK  109  A    between atoms: _270  and  _271
REMARK  110  A    between atoms: _270  and  _273
REMARK  111  A    between atoms: _273  and  _274
REMARK  112  A    between atoms: _277  and  _279
REMARK  113  A    between atoms: _279  and  _280
REMARK  114  A    between atoms: _279  and  _282
REMARK  115  A    between atoms: _282  and  _283
REMARK  116  A    between atoms: _286  and  _288
REMARK  117  A    between atoms: _288  and  _289
REMARK  118  A    between atoms: _288  and  _291
REMARK  119  A    between atoms: _291  and  _292
REMARK  120  A    between atoms: _295  and  _297
REMARK  121  A    between atoms: _297  and  _298
REMARK  122  A    between atoms: _297  and  _300
REMARK  123  A    between atoms: _300  and  _301
REMARK  124  A    between atoms: _304  and  _306
REMARK  125  A    between atoms: _306  and  _307
REMARK  126  A    between atoms: _306  and  _309
REMARK  127  A    between atoms: _309  and  _310
REMARK  128  A    between atoms: _313  and  _315
REMARK  129  A    between atoms: _315  and  _316
REMARK  130  A    between atoms: _318  and  _320
REMARK  131  A    between atoms: _320  and  _321
REMARK  132  A    between atoms: _324  and  _326
REMARK  133  A    between atoms: _326  and  _327
REMARK  134  A    between atoms: _326  and  _329
REMARK  135  A    between atoms: _329  and  _330
REMARK  136  A    between atoms: _333  and  _335
REMARK  137  A    between atoms: _335  and  _336
REMARK  138  A    between atoms: _335  and  _338
REMARK  139  A    between atoms: _338  and  _339
REMARK  140  A    between atoms: _342  and  _344
REMARK  141  A    between atoms: _344  and  _345
REMARK  142  A    between atoms: _344  and  _347
REMARK  143  A    between atoms: _347  and  _348
REMARK  144  A    between atoms: _350  and  _352
REMARK  145  A    between atoms: _352  and  _353
REMARK  146  A    between atoms: _352  and  _355
REMARK  147  A    between atoms: _358  and  _360
REMARK  148  A    between atoms: _360  and  _361
REMARK  149  A    between atoms: _360  and  _363
REMARK  150  A    between atoms: _363  and  _364
REMARK  151  A    between atoms: _367  and  _369
REMARK  152  A    between atoms: _369  and  _370
REMARK  153  A    between atoms: _372  and  _374
REMARK  154  A    between atoms: _374  and  _375
REMARK  155  A    between atoms: _374  and  _377
REMARK  156  A    between atoms: _377  and  _378
REMARK  157  A    between atoms: _381  and  _383
REMARK  158  A    between atoms: _383  and  _384
REMARK  159  A    between atoms: _386  and  _388
REMARK  160  A    between atoms: _388  and  _389
REMARK  161  A    between atoms: _391  and  _393
REMARK  162  A    between atoms: _393  and  _394
REMARK  163  A    between atoms: _393  and  _396
REMARK  164  A    between atoms: _399  and  _401
REMARK  165  A    between atoms: _401  and  _402
REMARK  166  A    between atoms: _404  and  _406
REMARK  167  A    between atoms: _406  and  _407
REMARK  168  A    between atoms: _409  and  _411
REMARK  169  A    between atoms: _411  and  _412
REMARK  170  A    between atoms: _411  and  _414
REMARK  171  A    between atoms: _414  and  _415
REMARK  172  A    between atoms: _420  and  _422
REMARK  173  A    between atoms: _422  and  _423
REMARK  174  A    between atoms: _422  and  _425
REMARK  175  A    between atoms: _428  and  _430
REMARK  176  A    between atoms: _430  and  _431
REMARK  177  A    between atoms: _430  and  _433
REMARK  178  A    between atoms: _433  and  _434
REMARK  179  A    between atoms: _437  and  _439
REMARK  180  A    between atoms: _439  and  _440
REMARK  181  A    between atoms: _439  and  _442
REMARK  182  A    between atoms: _442  and  _443
REMARK  183  A    between atoms: _446  and  _448
REMARK  184  A    between atoms: _448  and  _449
REMARK  185  A    between atoms: _448  and  _451
REMARK  186  A    between atoms: _451  and  _452
REMARK  187  A    between atoms: _456  and  _457
REMARK  188  A    between atoms: _462  and  _464
REMARK  189  A    between atoms: _464  and  _465
REMARK  190  A    between atoms: _464  and  _467
REMARK  191  A    between atoms: _470  and  _472
REMARK  192  A    between atoms: _472  and  _473
REMARK  193  A    between atoms: _472  and  _475
REMARK  194  A    between atoms: _475  and  _476
REMARK  195  A    between atoms: _479  and  _481
REMARK  196  A    between atoms: _481  and  _482
REMARK  197  A    between atoms: _481  and  _484
REMARK  198  A    between atoms: _484  and  _485
REMARK  199  A    between atoms: _488  and  _490
REMARK  200  A    between atoms: _490  and  _491
REMARK  201  A    between atoms: _493  and  _495
REMARK  202  A    between atoms: _495  and  _496
REMARK  203  A    between atoms: _495  and  _498
REMARK  204  A    between atoms: _498  and  _499
REMARK  205  A    between atoms: _499  and  _500
REMARK  206  A    between atoms: _500  and  _501
REMARK                            x       y       z     vdW  Elec       q    Type
REMARK                         _______ _______ _______ _____ _____    ______ ____
ROOT
ATOM      1  CA  LEU A   1      -0.488  20.666  14.558  0.00  0.00    +0.133 C 
ENDROOT
BRANCH   1   2
ATOM      2  N   LEU A   1      -0.432  19.225  14.818  0.00  0.00    -0.239 NA
ATOM      3  H   LEU A   1      -0.118  18.567  14.076  0.00  0.00    +0.142 HD
ENDBRANCH   1   2
BRANCH   1   4
ATOM      4  C   LEU A   1      -1.921  21.052  14.219  0.00  0.00    +0.224 C 
ATOM      5  O   LEU A   1      -2.841  20.277  13.865  0.00  0.00    -0.287 OA
ENDBRANCH   1   4
BRANCH   1   6
ATOM      6  CB  LEU A   1       0.328  20.990  13.292  0.00  0.00    +0.025 C 
BRANCH   6   7
ATOM      7  CG  LEU A   1       1.793  20.546  13.440  0.00  0.00    +0.002 C 
ATOM      8  CD2 LEU A   1       2.464  21.097  14.692  0.00  0.00    +0.000 C 
ATOM      9  CD1 LEU A   1       2.488  20.919  12.133  0.00  0.00    +0.000 C 
ENDBRANCH   6   7
ENDBRANCH   1   6
TORSDOF 4
REMARK  Name = ../refined-set-2016/2fmb/2fmb_pocket.pdb
REMARK  206 active torsions:
REMARK  status: ('A' for Active; 'I' for Inactive)
REMARK    1  A    between atoms: _1  and  _3
REMARK    2  A    between atoms: _3  and  _4
REMARK    3  A    between atoms: _3  and  _6
REMARK    4  A    between atoms: _6  and  _7
REMARK    5  A    between atoms: _7  and  _8
REMARK    6  A    between atoms: _8  and  _9
REMARK    7  A    between atoms: _18  and  _20
REMARK    8  A    between atoms: _20  and  _21
REMARK    9  A    between atoms: _20  and  _23
REMARK   10  A    between atoms: _23  and  _24
REMARK   11  A    between atoms: _27  and  _29
REMARK   12  A    between atoms: _29  and  _30
REMARK   13  A    between atoms: _29  and  _32
REMARK   14  A    between atoms: _32  and  _33
REMARK   15  A    between atoms: _36  and  _38
REMARK   16  A    between atoms: _38  and  _39
REMARK   17  A    between atoms: _38  and  _41
REMARK   18  A    between atoms: _41  and  _42
REMARK   19  A    between atoms: _45  and  _47
REMARK   20  A    between atoms: _47  and  _48
REMARK   21  A    between atoms: _47  and  _50
REMARK   22  A    between atoms: _50  and  _51
REMARK   23  A    between atoms: _54  and  _56
REMARK   24  A    between atoms: _56  and  _57
REMARK   25  A    between atoms: _59  and  _61
REMARK   26  A    between atoms: _61  and  _62
REMARK   27  A    between atoms: _65  and  _67
REMARK   28  A    between atoms: _67  and  _68
REMARK   29  A    between atoms: _67  and  _70
REMARK   30  A    between atoms: _70  and  _71
REMARK   31  A    between atoms: _74  and  _76
REMARK   32  A    between atoms: _76  and  _77
REMARK   33  A    between atoms: _76  and  _79
REMARK   34  A    between atoms: _79  and  _80
REMARK   35  A    between atoms: _83  and  _85
REMARK   36  A    between atoms: _85  and  _86
REMARK   37  A    between atoms: _85  and  _88
REMARK   38  A    between atoms: _88  and  _89
REMARK   39  A    between atoms: _91  and  _93
REMARK   40  A    between atoms: _93  and  _94
REMARK   41  A    between atoms: _93  and  _96
REMARK   42  A    between atoms: _99  and  _101
REMARK   43  A    between atoms: _101  and  _102
REMARK   44  A    between atoms: _101  and  _104
REMARK   45  A    between atoms: _104  and  _105
REMARK   46  A    between atoms: _108  and  _110
REMARK   47  A    between atoms: _110  and  _111
REMARK   48  A    between atoms: _113  and  _115
REMARK   49  A    between atoms: _115  and  _116
REMARK   50  A    between atoms: _115  and  _118
REMARK   51  A    between atoms: _118  and  _119
REMARK   52  A    between atoms: _122  and  _124
REMARK   53  A    between atoms: _124  and  _125
REMARK   54  A    between atoms: _127  and  _129
REMARK   55  A    between atoms: _129  and  _130
REMARK   56  A    between atoms: _132  and  _134
REMARK   57  A    between atoms: _134  and  _135
REMARK   58  A    between atoms: _134  and  _137
REMARK   59  A    between atoms: _140  and  _142
REMARK   60  A    between atoms: _142  and  _143
REMARK   61  A    between atoms: _145  and  _147
REMARK   62  A    between atoms: _147  and  _148
REMARK   63  A    between atoms: _150  and  _152
REMARK   64  A    between atoms: _152  and  _153
REMARK   65  A    between atoms: _152  and  _155
REMARK   66  A    between atoms: _155  and  _156
REMARK   67  A    between atoms: _161  and  _163
REMARK   68  A    between atoms: _163  and  _164
REMARK   69  A    between atoms: _163  and  _166
REMARK   70  A    between atoms: _169  and  _171
REMARK   71  A    between atoms: _171  and  _172
REMARK   72  A    between atoms: _171  and  _174
REMARK   73  A    between atoms: _174  and  _175
REMARK   74  A    between atoms: _178  and  _180
REMARK   75  A    between atoms: _180  and  _181
REMARK   76  A    between atoms: _180  and  _183
REMARK   77  A    between atoms: _183  and  _184
REMARK   78  A    between atoms: _188  and  _189
REMARK   79  A    between atoms: _194  and  _196
REMARK   80  A    between atoms: _196  and  _197
REMARK   81  A    between atoms: _196  and  _199
REMARK   82  A    between atoms: _202  and  _204
REMARK   83  A    between atoms: _204  and  _205
REMARK   84  A    between atoms: _204  and  _207
REMARK   85  A    between atoms: _207  and  _208
REMARK   86  A    between atoms: _211  and  _213
REMARK   87  A    between atoms: _213  and  _214
REMARK   88  A    between atoms: _213  and  _216
REMARK   89  A    between atoms: _216  and  _217
REMARK   90  A    between atoms: _220  and  _222
REMARK   91  A    between atoms: _222  and  _223
REMARK   92  A    between atoms: _222  and  _225
REMARK   93  A    between atoms: _225  and  _226
REMARK   94  A    between atoms: _229  and  _231
REMARK   95  A    between atoms: _231  and  _232
REMARK   96  A    between atoms: _234  and  _236
REMARK   97  A    between atoms: _236  and  _237
REMARK   98  A    between atoms: _236  and  _239
REMARK   99  A    between atoms: _239  and  _240
REMARK  100  A    between atoms: _240  and  _241
REMARK  101  A    between atoms: _241  and  _242
REMARK  102  A    between atoms: _251  and  _253
REMARK  103  A    between atoms: _253  and  _254
REMARK  104  A    between atoms: _253  and  _256
REMARK  105  A    between atoms: _256  and  _257
REMARK  106  A    between atoms: _257  and  _258
REMARK  107  A    between atoms: _258  and  _259
REMARK  108  A    between atoms: _268  and  _270
REMARK  109  A    between atoms: _270  and  _271
REMARK  110  A    between atoms: _270  and  _273
REMARK  111  A    between atoms: _273  and  _274
REMARK  112  A    between atoms: _277  and  _279
REMARK  113  A    between atoms: _279  and  _280
REMARK  114  A    between atoms: _279  and  _282
REMARK  115  A    between atoms: _282  and  _283
REMARK  116  A    between atoms: _286  and  _288
REMARK  117  A    between atoms: _288  and  _289
REMARK  118  A    between atoms: _288  and  _291
REMARK  119  A    between atoms: _291  and  _292
REMARK  120  A    between atoms: _295  and  _297
REMARK  121  A    between atoms: _297  and  _298
REMARK  122  A    between atoms: _297  and  _300
REMARK  123  A    between atoms: _300  and  _301
REMARK  124  A    between atoms: _304  and  _306
REMARK  125  A    between atoms: _306  and  _307
REMARK  126  A    between atoms: _306  and  _309
REMARK  127  A    between atoms: _309  and  _310
REMARK  128  A    between atoms: _313  and  _315
REMARK  129  A    between atoms: _315  and  _316
REMARK  130  A    between atoms: _318  and  _320
REMARK  131  A    between atoms: _320  and  _321
REMARK  132  A    between atoms: _324  and  _326
REMARK  133  A    between atoms: _326  and  _327
REMARK  134  A    between atoms: _326  and  _329
REMARK  135  A    between atoms: _329  and  _330
REMARK  136  A    between atoms: _333  and  _335
REMARK  137  A    between atoms: _335  and  _336
REMARK  138  A    between atoms: _335  and  _338
REMARK  139  A    between atoms: _338  and  _339
REMARK  140  A    between atoms: _342  and  _344
REMARK  141  A    between atoms: _344  and  _345
REMARK  142  A    between atoms: _344  and  _347
REMARK  143  A    between atoms: _347  and  _348
REMARK  144  A    between atoms: _350  and  _352
REMARK  145  A    between atoms: _352  and  _353
REMARK  146  A    between atoms: _352  and  _355
REMARK  147  A    between atoms: _358  and  _360
REMARK  148  A    between atoms: _360  and  _361
REMARK  149  A    between atoms: _360  and  _363
REMARK  150  A    between atoms: _363  and  _364
REMARK  151  A    between atoms: _367  and  _369
REMARK  152  A    between atoms: _369  and  _370
REMARK  153  A    between atoms: _372  and  _374
REMARK  154  A    between atoms: _374  and  _375
REMARK  155  A    between atoms: _374  and  _377
REMARK  156  A    between atoms: _377  and  _378
REMARK  157  A    between atoms: _381  and  _383
REMARK  158  A    between atoms: _383  and  _384
REMARK  159  A    between atoms: _386  and  _388
REMARK  160  A    between atoms: _388  and  _389
REMARK  161  A    between atoms: _391  and  _393
REMARK  162  A    between atoms: _393  and  _394
REMARK  163  A    between atoms: _393  and  _396
REMARK  164  A    between atoms: _399  and  _401
REMARK  165  A    between atoms: _401  and  _402
REMARK  166  A    between atoms: _404  and  _406
REMARK  167  A    between atoms: _406  and  _407
REMARK  168  A    between atoms: _409  and  _411
REMARK  169  A    between atoms: _411  and  _412
REMARK  170  A    between atoms: _411  and  _414
REMARK  171  A    between atoms: _414  and  _415
REMARK  172  A    between atoms: _420  and  _422
REMARK  173  A    between atoms: _422  and  _423
REMARK  174  A    between atoms: _422  and  _425
REMARK  175  A    between atoms: _428  and  _430
REMARK  176  A    between atoms: _430  and  _431
REMARK  177  A    between atoms: _430  and  _433
REMARK  178  A    between atoms: _433  and  _434
REMARK  179  A    between atoms: _437  and  _439
REMARK  180  A    between atoms: _439  and  _440
REMARK  181  A    between atoms: _439  and  _442
REMARK  182  A    between atoms: _442  and  _443
REMARK  183  A    between atoms: _446  and  _448
REMARK  184  A    between atoms: _448  and  _449
REMARK  185  A    between atoms: _448  and  _451
REMARK  186  A    between atoms: _451  and  _452
REMARK  187  A    between atoms: _456  and  _457
REMARK  188  A    between atoms: _462  and  _464
REMARK  189  A    between atoms: _464  and  _465
REMARK  190  A    between atoms: _464  and  _467
REMARK  191  A    between atoms: _470  and  _472
REMARK  192  A    between atoms: _472  and  _473
REMARK  193  A    between atoms: _472  and  _475
REMARK  194  A    between atoms: _475  and  _476
REMARK  195  A    between atoms: _479  and  _481
REMARK  196  A    between atoms: _481  and  _482
REMARK  197  A    between atoms: _481  and  _484
REMARK  198  A    between atoms: _484  and  _485
REMARK  199  A    between atoms: _488  and  _490
REMARK  200  A    between atoms: _490  and  _491
REMARK  201  A    between atoms: _493  and  _495
REMARK  202  A    between atoms: _495  and  _496
REMARK  203  A    between atoms: _495  and  _498
REMARK  204  A    between atoms: _498  and  _499
REMARK  205  A    between atoms: _499  and  _500
REMARK  206  A    between atoms: _500  and  _501
REMARK                            x       y       z     vdW  Elec       q    Type
REMARK                         _______ _______ _______ _____ _____    ______ ____
ROOT
ATOM      1  CA  ILE A   5      -4.630  15.466   7.183  0.00  0.00    +0.149 C 
ENDROOT
BRANCH   1   2
ATOM      2  C   ILE A   5      -3.835  14.657   8.169  0.00  0.00    +0.241 C 
ATOM      3  O   ILE A   5      -3.278  15.155   9.155  0.00  0.00    -0.273 OA
ATOM      4  N   LEU A   6      -3.804  13.349   7.915  0.00  0.00    -0.297 N 
ATOM      5  H   LEU A   6      -4.403  12.958   7.160  0.00  0.00    +0.150 HD
BRANCH   4   6
ATOM      6  CA  LEU A   6      -2.949  12.470   8.675  0.00  0.00    +0.149 C 
BRANCH   6   7
ATOM      7  C   LEU A   6      -1.698  12.273   7.760  0.00  0.00    +0.241 C 
ATOM      8  N   GLY A   7      -0.573  12.733   8.243  0.00  0.00    -0.295 N 
ATOM      9  H   GLY A   7      -0.564  13.171   9.186  0.00  0.00    +0.150 HD
ATOM     10  O   LEU A   6      -1.847  11.736   6.670  0.00  0.00    -0.273 OA
BRANCH   8  11
ATOM     11  CA  GLY A   7       0.676  12.643   7.480  0.00  0.00    +0.176 C 
BRANCH  11  12
ATOM     12  C   GLY A   7       1.478  11.414   7.911  0.00  0.00    +0.243 C 
ATOM     13  O   GLY A   7       1.045  10.587   8.700  0.00  0.00    -0.273 OA
ATOM     14  N   ARG A   8       2.738  11.384   7.487  0.00  0.00    -0.298 N 
ATOM     15  H   ARG A   8       3.115  12.210   6.979  0.00  0.00    +0.150 HD
BRANCH  14  16
ATOM     16  CA  ARG A   8       3.606  10.244   7.706  0.00  0.00    +0.137 C 
BRANCH  16  17
ATOM     17  C   ARG A   8       3.843   9.855   9.135  0.00  0.00    +0.227 C 
ATOM     18  O   ARG A   8       4.077   8.653   9.436  0.00  0.00    -0.286 OA
ENDBRANCH  16  17
BRANCH  16  19
ATOM     19  CB  ARG A   8       4.929  10.443   6.912  0.00  0.00    +0.031 C 
BRANCH  19  20
ATOM     20  CG  ARG A   8       4.705  10.451   5.383  0.00  0.00    +0.045 C 
BRANCH  20  21
ATOM     21  CD  ARG A   8       6.099  10.389   4.666  0.00  0.00    +0.174 C 
BRANCH  21  22
ATOM     22  NE  ARG A   8       6.877  11.612   4.896  0.00  0.00    -0.265 N 
ATOM     23  CZ  ARG A   8       7.837  11.760   5.791  0.00  0.00    +0.342 C 
ATOM     24  NH2 ARG A   8       8.272  10.785   6.609  0.00  0.00    -0.292 N 
ATOM     25 HH21 ARG A   8       9.034  10.979   7.289  0.00  0.00    +0.255 HD
ATOM     26 HH22 ARG A   8       7.846   9.837   6.561  0.00  0.00    +0.255 HD
ATOM     27  NH1 ARG A   8       8.456  12.924   5.988  0.00  0.00    -0.292 N 
ATOM     28 HH11 ARG A   8       9.207  12.999   6.703  0.00  0.00    +0.255 HD
ATOM     29 HH12 ARG A   8       8.188  13.757   5.427  0.00  0.00    +0.255 HD
ATOM     30  HE  ARG A   8       6.652  12.435   4.301  0.00  0.00    +0.259 HD
ENDBRANCH  21  22
ENDBRANCH  20  21
ENDBRANCH  19  20
ENDBRANCH  16  19
ENDBRANCH  14  16
ENDBRANCH  11  12
ENDBRANCH   8  11
ENDBRANCH   6   7
BRANCH   6  31
ATOM     31  CB  LEU A   6      -3.619  11.117   8.839  0.00  0.00    +0.029 C 
BRANCH  31  32
ATOM     32  CG  LEU A   6      -4.156  10.847  10.246  0.00  0.00    +0.002 C 
ATOM     33  CD2 LEU A   6      -4.781  12.094  10.827  0.00  0.00    +0.000 C 
ATOM     34  CD1 LEU A   6      -5.082   9.642  10.318  0.00  0.00    +0.000 C 
ENDBRANCH  31  32
ENDBRANCH   6  31
ENDBRANCH   4   6
ENDBRANCH   1   2
BRANCH   1  36
ATOM     35  C   THR A   4      -6.799  16.382   7.640  0.00  0.00    +0.243 C 
ATOM     36  N   ILE A   5      -5.489  16.476   7.881  0.00  0.00    -0.297 N 
ATOM     37  H   ILE A   5      -5.091  17.202   8.511  0.00  0.00    +0.150 HD
ATOM     38  O   THR A   4      -7.441  15.580   6.933  0.00  0.00    -0.273 OA
BRANCH  35  39
ATOM     39  CA  THR A   4      -7.563  17.518   8.349  0.00  0.00    +0.176 C 
BRANCH  39  41
ATOM     40  C   VAL A   3      -8.037  18.964   6.474  0.00  0.00    +0.241 C 
ATOM     41  N   THR A   4      -8.463  18.029   7.305  0.00  0.00    -0.295 N 
ATOM     42  H   THR A   4      -9.430  17.656   7.221  0.00  0.00    +0.150 HD
ATOM     43  O   VAL A   3      -6.902  19.441   6.628  0.00  0.00    -0.273 OA
BRANCH  40  44
ATOM     44  CA  VAL A   3      -8.995  19.513   5.416  0.00  0.00    +0.149 C 
BRANCH  44  46
ATOM     45  C   PRO A   2      -9.372  21.756   4.509  0.00  0.00    +0.241 C 
ATOM     46  N   VAL A   3      -8.526  20.818   4.944  0.00  0.00    -0.297 N 
ATOM     47  H   VAL A   3      -7.506  21.020   4.948  0.00  0.00    +0.150 HD
ATOM     48  O   PRO A   2     -10.566  21.642   4.408  0.00  0.00    -0.273 OA
BRANCH  45  52
ATOM     49  C   ILE A   1      -7.376  23.910   5.726  0.00  0.00    +0.241 C 
ATOM     50  O   ILE A   1      -8.279  23.793   6.531  0.00  0.00    -0.273 OA
ATOM     51  N   PRO A   2      -7.539  23.533   4.462  0.00  0.00    -0.272 N 
ATOM     52  CA  PRO A   2      -8.823  23.062   3.988  0.00  0.00    +0.152 C 
ATOM     53  CB  PRO A   2      -8.598  22.852   2.485  0.00  0.00    +0.031 C 
ATOM     54  CG  PRO A   2      -7.273  23.450   2.207  0.00  0.00    +0.024 C 
ATOM     55  CD  PRO A   2      -6.466  23.621   3.456  0.00  0.00    +0.094 C 
BRANCH  49  56
ATOM     56  CA  ILE A   1      -6.022  24.487   6.112  0.00  0.00    +0.145 C 
BRANCH  56  57
ATOM     57  N   ILE A   1      -6.237  25.196   7.372  0.00  0.00    -0.238 NA
ATOM     58  H   ILE A   1      -6.532  24.662   8.214  0.00  0.00    +0.142 HD
ENDBRANCH  56  57
BRANCH  56  59
ATOM     59  CB  ILE A   1      -4.874  23.491   6.156  0.00  0.00    +0.025 C 
ATOM     60  CG2 ILE A   1      -3.588  24.229   6.584  0.00  0.00    +0.002 C 
BRANCH  59  61
ATOM     61  CG1 ILE A   1      -5.183  22.366   7.152  0.00  0.00    +0.002 C 
ATOM     62  CD1 ILE A   1      -4.281  21.152   6.963  0.00  0.00    +0.000 C 
ENDBRANCH  59  61
ENDBRANCH  56  59
ENDBRANCH  49  56
ENDBRANCH  45  52
ENDBRANCH  44  46
BRANCH  44  63
ATOM     63  CB  VAL A   3      -9.062  18.624   4.160  0.00  0.00    +0.027 C 
ATOM     64  CG2 VAL A   3      -9.775  17.316   4.376  0.00  0.00    +0.002 C 
ATOM     65  CG1 VAL A   3      -7.637  18.389   3.657  0.00  0.00    +0.002 C 
ENDBRANCH  44  63
ENDBRANCH  40  44
ENDBRANCH  39  41
BRANCH  39  66
ATOM     66  CB  THR A   4      -8.337  16.903   9.505  0.00  0.00    +0.137 C 
ATOM     67  CG2 THR A   4      -7.484  16.047  10.434  0.00  0.00    +0.034 C 
BRANCH  66  68
ATOM     68  OG1 THR A   4      -8.780  18.072  10.254  0.00  0.00    -0.382 OA
ATOM     69  HG1 THR A   4      -9.303  17.779  11.042  0.00  0.00    +0.210 HD
ENDBRANCH  66  68
ENDBRANCH  39  66
ENDBRANCH  35  39
ENDBRANCH   1  36
BRANCH   1  70
ATOM     70  CB  ILE A   5      -3.642  16.368   6.371  0.00  0.00    +0.027 C 
ATOM     71  CG2 ILE A   5      -2.551  15.532   5.736  0.00  0.00    +0.002 C 
BRANCH  70  72
ATOM     72  CG1 ILE A   5      -4.461  17.000   5.222  0.00  0.00    +0.002 C 
ATOM     73  CD1 ILE A   5      -3.586  17.879   4.369  0.00  0.00    +0.000 C 
ENDBRANCH  70  72
ENDBRANCH   1  70
TORSDOF 28
REMARK  Name = ../refined-set-2016/2fmb/2fmb_pocket.pdb
REMARK  206 active torsions:
REMARK  status: ('A' for Active; 'I' for Inactive)
REMARK    1  A    between atoms: _1  and  _3
REMARK    2  A    between atoms: _3  and  _4
REMARK    3  A    between atoms: _3  and  _6
REMARK    4  A    between atoms: _6  and  _7
REMARK    5  A    between atoms: _7  and  _8
REMARK    6  A    between atoms: _8  and  _9
REMARK    7  A    between atoms: _18  and  _20
REMARK    8  A    between atoms: _20  and  _21
REMARK    9  A    between atoms: _20  and  _23
REMARK   10  A    between atoms: _23  and  _24
REMARK   11  A    between atoms: _27  and  _29
REMARK   12  A    between atoms: _29  and  _30
REMARK   13  A    between atoms: _29  and  _32
REMARK   14  A    between atoms: _32  and  _33
REMARK   15  A    between atoms: _36  and  _38
REMARK   16  A    between atoms: _38  and  _39
REMARK   17  A    between atoms: _38  and  _41
REMARK   18  A    between atoms: _41  and  _42
REMARK   19  A    between atoms: _45  and  _47
REMARK   20  A    between atoms: _47  and  _48
REMARK   21  A    between atoms: _47  and  _50
REMARK   22  A    between atoms: _50  and  _51
REMARK   23  A    between atoms: _54  and  _56
REMARK   24  A    between atoms: _56  and  _57
REMARK   25  A    between atoms: _59  and  _61
REMARK   26  A    between atoms: _61  and  _62
REMARK   27  A    between atoms: _65  and  _67
REMARK   28  A    between atoms: _67  and  _68
REMARK   29  A    between atoms: _67  and  _70
REMARK   30  A    between atoms: _70  and  _71
REMARK   31  A    between atoms: _74  and  _76
REMARK   32  A    between atoms: _76  and  _77
REMARK   33  A    between atoms: _76  and  _79
REMARK   34  A    between atoms: _79  and  _80
REMARK   35  A    between atoms: _83  and  _85
REMARK   36  A    between atoms: _85  and  _86
REMARK   37  A    between atoms: _85  and  _88
REMARK   38  A    between atoms: _88  and  _89
REMARK   39  A    between atoms: _91  and  _93
REMARK   40  A    between atoms: _93  and  _94
REMARK   41  A    between atoms: _93  and  _96
REMARK   42  A    between atoms: _99  and  _101
REMARK   43  A    between atoms: _101  and  _102
REMARK   44  A    between atoms: _101  and  _104
REMARK   45  A    between atoms: _104  and  _105
REMARK   46  A    between atoms: _108  and  _110
REMARK   47  A    between atoms: _110  and  _111
REMARK   48  A    between atoms: _113  and  _115
REMARK   49  A    between atoms: _115  and  _116
REMARK   50  A    between atoms: _115  and  _118
REMARK   51  A    between atoms: _118  and  _119
REMARK   52  A    between atoms: _122  and  _124
REMARK   53  A    between atoms: _124  and  _125
REMARK   54  A    between atoms: _127  and  _129
REMARK   55  A    between atoms: _129  and  _130
REMARK   56  A    between atoms: _132  and  _134
REMARK   57  A    between atoms: _134  and  _135
REMARK   58  A    between atoms: _134  and  _137
REMARK   59  A    between atoms: _140  and  _142
REMARK   60  A    between atoms: _142  and  _143
REMARK   61  A    between atoms: _145  and  _147
REMARK   62  A    between atoms: _147  and  _148
REMARK   63  A    between atoms: _150  and  _152
REMARK   64  A    between atoms: _152  and  _153
REMARK   65  A    between atoms: _152  and  _155
REMARK   66  A    between atoms: _155  and  _156
REMARK   67  A    between atoms: _161  and  _163
REMARK   68  A    between atoms: _163  and  _164
REMARK   69  A    between atoms: _163  and  _166
REMARK   70  A    between atoms: _169  and  _171
REMARK   71  A    between atoms: _171  and  _172
REMARK   72  A    between atoms: _171  and  _174
REMARK   73  A    between atoms: _174  and  _175
REMARK   74  A    between atoms: _178  and  _180
REMARK   75  A    between atoms: _180  and  _181
REMARK   76  A    between atoms: _180  and  _183
REMARK   77  A    between atoms: _183  and  _184
REMARK   78  A    between atoms: _188  and  _189
REMARK   79  A    between atoms: _194  and  _196
REMARK   80  A    between atoms: _196  and  _197
REMARK   81  A    between atoms: _196  and  _199
REMARK   82  A    between atoms: _202  and  _204
REMARK   83  A    between atoms: _204  and  _205
REMARK   84  A    between atoms: _204  and  _207
REMARK   85  A    between atoms: _207  and  _208
REMARK   86  A    between atoms: _211  and  _213
REMARK   87  A    between atoms: _213  and  _214
REMARK   88  A    between atoms: _213  and  _216
REMARK   89  A    between atoms: _216  and  _217
REMARK   90  A    between atoms: _220  and  _222
REMARK   91  A    between atoms: _222  and  _223
REMARK   92  A    between atoms: _222  and  _225
REMARK   93  A    between atoms: _225  and  _226
REMARK   94  A    between atoms: _229  and  _231
REMARK   95  A    between atoms: _231  and  _232
REMARK   96  A    between atoms: _234  and  _236
REMARK   97  A    between atoms: _236  and  _237
REMARK   98  A    between atoms: _236  and  _239
REMARK   99  A    between atoms: _239  and  _240
REMARK  100  A    between atoms: _240  and  _241
REMARK  101  A    between atoms: _241  and  _242
REMARK  102  A    between atoms: _251  and  _253
REMARK  103  A    between atoms: _253  and  _254
REMARK  104  A    between atoms: _253  and  _256
REMARK  105  A    between atoms: _256  and  _257
REMARK  106  A    between atoms: _257  and  _258
REMARK  107  A    between atoms: _258  and  _259
REMARK  108  A    between atoms: _268  and  _270
REMARK  109  A    between atoms: _270  and  _271
REMARK  110  A    between atoms: _270  and  _273
REMARK  111  A    between atoms: _273  and  _274
REMARK  112  A    between atoms: _277  and  _279
REMARK  113  A    between atoms: _279  and  _280
REMARK  114  A    between atoms: _279  and  _282
REMARK  115  A    between atoms: _282  and  _283
REMARK  116  A    between atoms: _286  and  _288
REMARK  117  A    between atoms: _288  and  _289
REMARK  118  A    between atoms: _288  and  _291
REMARK  119  A    between atoms: _291  and  _292
REMARK  120  A    between atoms: _295  and  _297
REMARK  121  A    between atoms: _297  and  _298
REMARK  122  A    between atoms: _297  and  _300
REMARK  123  A    between atoms: _300  and  _301
REMARK  124  A    between atoms: _304  and  _306
REMARK  125  A    between atoms: _306  and  _307
REMARK  126  A    between atoms: _306  and  _309
REMARK  127  A    between atoms: _309  and  _310
REMARK  128  A    between atoms: _313  and  _315
REMARK  129  A    between atoms: _315  and  _316
REMARK  130  A    between atoms: _318  and  _320
REMARK  131  A    between atoms: _320  and  _321
REMARK  132  A    between atoms: _324  and  _326
REMARK  133  A    between atoms: _326  and  _327
REMARK  134  A    between atoms: _326  and  _329
REMARK  135  A    between atoms: _329  and  _330
REMARK  136  A    between atoms: _333  and  _335
REMARK  137  A    between atoms: _335  and  _336
REMARK  138  A    between atoms: _335  and  _338
REMARK  139  A    between atoms: _338  and  _339
REMARK  140  A    between atoms: _342  and  _344
REMARK  141  A    between atoms: _344  and  _345
REMARK  142  A    between atoms: _344  and  _347
REMARK  143  A    between atoms: _347  and  _348
REMARK  144  A    between atoms: _350  and  _352
REMARK  145  A    between atoms: _352  and  _353
REMARK  146  A    between atoms: _352  and  _355
REMARK  147  A    between atoms: _358  and  _360
REMARK  148  A    between atoms: _360  and  _361
REMARK  149  A    between atoms: _360  and  _363
REMARK  150  A    between atoms: _363  and  _364
REMARK  151  A    between atoms: _367  and  _369
REMARK  152  A    between atoms: _369  and  _370
REMARK  153  A    between atoms: _372  and  _374
REMARK  154  A    between atoms: _374  and  _375
REMARK  155  A    between atoms: _374  and  _377
REMARK  156  A    between atoms: _377  and  _378
REMARK  157  A    between atoms: _381  and  _383
REMARK  158  A    between atoms: _383  and  _384
REMARK  159  A    between atoms: _386  and  _388
REMARK  160  A    between atoms: _388  and  _389
REMARK  161  A    between atoms: _391  and  _393
REMARK  162  A    between atoms: _393  and  _394
REMARK  163  A    between atoms: _393  and  _396
REMARK  164  A    between atoms: _399  and  _401
REMARK  165  A    between atoms: _401  and  _402
REMARK  166  A    between atoms: _404  and  _406
REMARK  167  A    between atoms: _406  and  _407
REMARK  168  A    between atoms: _409  and  _411
REMARK  169  A    between atoms: _411  and  _412
REMARK  170  A    between atoms: _411  and  _414
REMARK  171  A    between atoms: _414  and  _415
REMARK  172  A    between atoms: _420  and  _422
REMARK  173  A    between atoms: _422  and  _423
REMARK  174  A    between atoms: _422  and  _425
REMARK  175  A    between atoms: _428  and  _430
REMARK  176  A    between atoms: _430  and  _431
REMARK  177  A    between atoms: _430  and  _433
REMARK  178  A    between atoms: _433  and  _434
REMARK  179  A    between atoms: _437  and  _439
REMARK  180  A    between atoms: _439  and  _440
REMARK  181  A    between atoms: _439  and  _442
REMARK  182  A    between atoms: _442  and  _443
REMARK  183  A    between atoms: _446  and  _448
REMARK  184  A    between atoms: _448  and  _449
REMARK  185  A    between atoms: _448  and  _451
REMARK  186  A    between atoms: _451  and  _452
REMARK  187  A    between atoms: _456  and  _457
REMARK  188  A    between atoms: _462  and  _464
REMARK  189  A    between atoms: _464  and  _465
REMARK  190  A    between atoms: _464  and  _467
REMARK  191  A    between atoms: _470  and  _472
REMARK  192  A    between atoms: _472  and  _473
REMARK  193  A    between atoms: _472  and  _475
REMARK  194  A    between atoms: _475  and  _476
REMARK  195  A    between atoms: _479  and  _481
REMARK  196  A    between atoms: _481  and  _482
REMARK  197  A    between atoms: _481  and  _484
REMARK  198  A    between atoms: _484  and  _485
REMARK  199  A    between atoms: _488  and  _490
REMARK  200  A    between atoms: _490  and  _491
REMARK  201  A    between atoms: _493  and  _495
REMARK  202  A    between atoms: _495  and  _496
REMARK  203  A    between atoms: _495  and  _498
REMARK  204  A    between atoms: _498  and  _499
REMARK  205  A    between atoms: _499  and  _500
REMARK  206  A    between atoms: _500  and  _501
REMARK                            x       y       z     vdW  Elec       q    Type
REMARK                         _______ _______ _______ _____ _____    ______ ____
ROOT
ATOM      1  NE  ARG A   1       9.663  15.694   2.850  0.00  0.00    -0.265 N 
ATOM      2  HE  ARG A   1       8.758  15.956   3.291  0.00  0.00    +0.259 HD
ATOM      3  CZ  ARG A   1      10.716  16.404   3.265  0.00  0.00    +0.342 C 
ATOM      4  NH2 ARG A   1      10.451  17.407   4.106  0.00  0.00    -0.292 N 
ATOM      5 HH21 ARG A   1      11.225  18.000   4.468  0.00  0.00    +0.255 HD
ATOM      6 HH22 ARG A   1       9.471  17.595   4.399  0.00  0.00    +0.255 HD
ATOM      7  NH1 ARG A   1      12.001  16.205   2.894  0.00  0.00    -0.292 N 
ATOM      8 HH11 ARG A   1      12.753  16.815   3.275  0.00  0.00    +0.255 HD
ATOM      9 HH12 ARG A   1      12.238  15.442   2.228  0.00  0.00    +0.255 HD
ENDROOT
BRANCH   1  10
ATOM     10  CD  ARG A   1       9.581  14.610   1.877  0.00  0.00    +0.174 C 
BRANCH  10  11
ATOM     11  CG  ARG A   1       9.565  13.250   2.575  0.00  0.00    +0.045 C 
BRANCH  11  12
ATOM     12  CB  ARG A   1       9.546  12.121   1.537  0.00  0.00    +0.029 C 
BRANCH  12  13
ATOM     13  CA  ARG A   1       9.194  10.776   2.186  0.00  0.00    +0.133 C 
BRANCH  13  14
ATOM     14  N   ARG A   1      10.207  10.457   3.201  0.00  0.00    -0.239 NA
ATOM     15  H   ARG A   1      11.007  11.086   3.415  0.00  0.00    +0.142 HD
ENDBRANCH  13  14
BRANCH  13  16
ATOM     16  C   ARG A   1       9.276   9.733   1.066  0.00  0.00    +0.224 C 
ATOM     17  O   ARG A   1      10.411   9.364   0.684  0.00  0.00    -0.287 OA
ENDBRANCH  13  16
ENDBRANCH  12  13
ENDBRANCH  11  12
ENDBRANCH  10  11
ENDBRANCH   1  10
TORSDOF 6
REMARK  Name = ../refined-set-2016/2fmb/2fmb_pocket.pdb
REMARK  206 active torsions:
REMARK  status: ('A' for Active; 'I' for Inactive)
REMARK    1  A    between atoms: _1  and  _3
REMARK    2  A    between atoms: _3  and  _4
REMARK    3  A    between atoms: _3  and  _6
REMARK    4  A    between atoms: _6  and  _7
REMARK    5  A    between atoms: _7  and  _8
REMARK    6  A    between atoms: _8  and  _9
REMARK    7  A    between atoms: _18  and  _20
REMARK    8  A    between atoms: _20  and  _21
REMARK    9  A    between atoms: _20  and  _23
REMARK   10  A    between atoms: _23  and  _24
REMARK   11  A    between atoms: _27  and  _29
REMARK   12  A    between atoms: _29  and  _30
REMARK   13  A    between atoms: _29  and  _32
REMARK   14  A    between atoms: _32  and  _33
REMARK   15  A    between atoms: _36  and  _38
REMARK   16  A    between atoms: _38  and  _39
REMARK   17  A    between atoms: _38  and  _41
REMARK   18  A    between atoms: _41  and  _42
REMARK   19  A    between atoms: _45  and  _47
REMARK   20  A    between atoms: _47  and  _48
REMARK   21  A    between atoms: _47  and  _50
REMARK   22  A    between atoms: _50  and  _51
REMARK   23  A    between atoms: _54  and  _56
REMARK   24  A    between atoms: _56  and  _57
REMARK   25  A    between atoms: _59  and  _61
REMARK   26  A    between atoms: _61  and  _62
REMARK   27  A    between atoms: _65  and  _67
REMARK   28  A    between atoms: _67  and  _68
REMARK   29  A    between atoms: _67  and  _70
REMARK   30  A    between atoms: _70  and  _71
REMARK   31  A    between atoms: _74  and  _76
REMARK   32  A    between atoms: _76  and  _77
REMARK   33  A    between atoms: _76  and  _79
REMARK   34  A    between atoms: _79  and  _80
REMARK   35  A    between atoms: _83  and  _85
REMARK   36  A    between atoms: _85  and  _86
REMARK   37  A    between atoms: _85  and  _88
REMARK   38  A    between atoms: _88  and  _89
REMARK   39  A    between atoms: _91  and  _93
REMARK   40  A    between atoms: _93  and  _94
REMARK   41  A    between atoms: _93  and  _96
REMARK   42  A    between atoms: _99  and  _101
REMARK   43  A    between atoms: _101  and  _102
REMARK   44  A    between atoms: _101  and  _104
REMARK   45  A    between atoms: _104  and  _105
REMARK   46  A    between atoms: _108  and  _110
REMARK   47  A    between atoms: _110  and  _111
REMARK   48  A    between atoms: _113  and  _115
REMARK   49  A    between atoms: _115  and  _116
REMARK   50  A    between atoms: _115  and  _118
REMARK   51  A    between atoms: _118  and  _119
REMARK   52  A    between atoms: _122  and  _124
REMARK   53  A    between atoms: _124  and  _125
REMARK   54  A    between atoms: _127  and  _129
REMARK   55  A    between atoms: _129  and  _130
REMARK   56  A    between atoms: _132  and  _134
REMARK   57  A    between atoms: _134  and  _135
REMARK   58  A    between atoms: _134  and  _137
REMARK   59  A    between atoms: _140  and  _142
REMARK   60  A    between atoms: _142  and  _143
REMARK   61  A    between atoms: _145  and  _147
REMARK   62  A    between atoms: _147  and  _148
REMARK   63  A    between atoms: _150  and  _152
REMARK   64  A    between atoms: _152  and  _153
REMARK   65  A    between atoms: _152  and  _155
REMARK   66  A    between atoms: _155  and  _156
REMARK   67  A    between atoms: _161  and  _163
REMARK   68  A    between atoms: _163  and  _164
REMARK   69  A    between atoms: _163  and  _166
REMARK   70  A    between atoms: _169  and  _171
REMARK   71  A    between atoms: _171  and  _172
REMARK   72  A    between atoms: _171  and  _174
REMARK   73  A    between atoms: _174  and  _175
REMARK   74  A    between atoms: _178  and  _180
REMARK   75  A    between atoms: _180  and  _181
REMARK   76  A    between atoms: _180  and  _183
REMARK   77  A    between atoms: _183  and  _184
REMARK   78  A    between atoms: _188  and  _189
REMARK   79  A    between atoms: _194  and  _196
REMARK   80  A    between atoms: _196  and  _197
REMARK   81  A    between atoms: _196  and  _199
REMARK   82  A    between atoms: _202  and  _204
REMARK   83  A    between atoms: _204  and  _205
REMARK   84  A    between atoms: _204  and  _207
REMARK   85  A    between atoms: _207  and  _208
REMARK   86  A    between atoms: _211  and  _213
REMARK   87  A    between atoms: _213  and  _214
REMARK   88  A    between atoms: _213  and  _216
REMARK   89  A    between atoms: _216  and  _217
REMARK   90  A    between atoms: _220  and  _222
REMARK   91  A    between atoms: _222  and  _223
REMARK   92  A    between atoms: _222  and  _225
REMARK   93  A    between atoms: _225  and  _226
REMARK   94  A    between atoms: _229  and  _231
REMARK   95  A    between atoms: _231  and  _232
REMARK   96  A    between atoms: _234  and  _236
REMARK   97  A    between atoms: _236  and  _237
REMARK   98  A    between atoms: _236  and  _239
REMARK   99  A    between atoms: _239  and  _240
REMARK  100  A    between atoms: _240  and  _241
REMARK  101  A    between atoms: _241  and  _242
REMARK  102  A    between atoms: _251  and  _253
REMARK  103  A    between atoms: _253  and  _254
REMARK  104  A    between atoms: _253  and  _256
REMARK  105  A    between atoms: _256  and  _257
REMARK  106  A    between atoms: _257  and  _258
REMARK  107  A    between atoms: _258  and  _259
REMARK  108  A    between atoms: _268  and  _270
REMARK  109  A    between atoms: _270  and  _271
REMARK  110  A    between atoms: _270  and  _273
REMARK  111  A    between atoms: _273  and  _274
REMARK  112  A    between atoms: _277  and  _279
REMARK  113  A    between atoms: _279  and  _280
REMARK  114  A    between atoms: _279  and  _282
REMARK  115  A    between atoms: _282  and  _283
REMARK  116  A    between atoms: _286  and  _288
REMARK  117  A    between atoms: _288  and  _289
REMARK  118  A    between atoms: _288  and  _291
REMARK  119  A    between atoms: _291  and  _292
REMARK  120  A    between atoms: _295  and  _297
REMARK  121  A    between atoms: _297  and  _298
REMARK  122  A    between atoms: _297  and  _300
REMARK  123  A    between atoms: _300  and  _301
REMARK  124  A    between atoms: _304  and  _306
REMARK  125  A    between atoms: _306  and  _307
REMARK  126  A    between atoms: _306  and  _309
REMARK  127  A    between atoms: _309  and  _310
REMARK  128  A    between atoms: _313  and  _315
REMARK  129  A    between atoms: _315  and  _316
REMARK  130  A    between atoms: _318  and  _320
REMARK  131  A    between atoms: _320  and  _321
REMARK  132  A    between atoms: _324  and  _326
REMARK  133  A    between atoms: _326  and  _327
REMARK  134  A    between atoms: _326  and  _329
REMARK  135  A    between atoms: _329  and  _330
REMARK  136  A    between atoms: _333  and  _335
REMARK  137  A    between atoms: _335  and  _336
REMARK  138  A    between atoms: _335  and  _338
REMARK  139  A    between atoms: _338  and  _339
REMARK  140  A    between atoms: _342  and  _344
REMARK  141  A    between atoms: _344  and  _345
REMARK  142  A    between atoms: _344  and  _347
REMARK  143  A    between atoms: _347  and  _348
REMARK  144  A    between atoms: _350  and  _352
REMARK  145  A    between atoms: _352  and  _353
REMARK  146  A    between atoms: _352  and  _355
REMARK  147  A    between atoms: _358  and  _360
REMARK  148  A    between atoms: _360  and  _361
REMARK  149  A    between atoms: _360  and  _363
REMARK  150  A    between atoms: _363  and  _364
REMARK  151  A    between atoms: _367  and  _369
REMARK  152  A    between atoms: _369  and  _370
REMARK  153  A    between atoms: _372  and  _374
REMARK  154  A    between atoms: _374  and  _375
REMARK  155  A    between atoms: _374  and  _377
REMARK  156  A    between atoms: _377  and  _378
REMARK  157  A    between atoms: _381  and  _383
REMARK  158  A    between atoms: _383  and  _384
REMARK  159  A    between atoms: _386  and  _388
REMARK  160  A    between atoms: _388  and  _389
REMARK  161  A    between atoms: _391  and  _393
REMARK  162  A    between atoms: _393  and  _394
REMARK  163  A    between atoms: _393  and  _396
REMARK  164  A    between atoms: _399  and  _401
REMARK  165  A    between atoms: _401  and  _402
REMARK  166  A    between atoms: _404  and  _406
REMARK  167  A    between atoms: _406  and  _407
REMARK  168  A    between atoms: _409  and  _411
REMARK  169  A    between atoms: _411  and  _412
REMARK  170  A    between atoms: _411  and  _414
REMARK  171  A    between atoms: _414  and  _415
REMARK  172  A    between atoms: _420  and  _422
REMARK  173  A    between atoms: _422  and  _423
REMARK  174  A    between atoms: _422  and  _425
REMARK  175  A    between atoms: _428  and  _430
REMARK  176  A    between atoms: _430  and  _431
REMARK  177  A    between atoms: _430  and  _433
REMARK  178  A    between atoms: _433  and  _434
REMARK  179  A    between atoms: _437  and  _439
REMARK  180  A    between atoms: _439  and  _440
REMARK  181  A    between atoms: _439  and  _442
REMARK  182  A    between atoms: _442  and  _443
REMARK  183  A    between atoms: _446  and  _448
REMARK  184  A    between atoms: _448  and  _449
REMARK  185  A    between atoms: _448  and  _451
REMARK  186  A    between atoms: _451  and  _452
REMARK  187  A    between atoms: _456  and  _457
REMARK  188  A    between atoms: _462  and  _464
REMARK  189  A    between atoms: _464  and  _465
REMARK  190  A    between atoms: _464  and  _467
REMARK  191  A    between atoms: _470  and  _472
REMARK  192  A    between atoms: _472  and  _473
REMARK  193  A    between atoms: _472  and  _475
REMARK  194  A    between atoms: _475  and  _476
REMARK  195  A    between atoms: _479  and  _481
REMARK  196  A    between atoms: _481  and  _482
REMARK  197  A    between atoms: _481  and  _484
REMARK  198  A    between atoms: _484  and  _485
REMARK  199  A    between atoms: _488  and  _490
REMARK  200  A    between atoms: _490  and  _491
REMARK  201  A    between atoms: _493  and  _495
REMARK  202  A    between atoms: _495  and  _496
REMARK  203  A    between atoms: _495  and  _498
REMARK  204  A    between atoms: _498  and  _499
REMARK  205  A    between atoms: _499  and  _500
REMARK  206  A    between atoms: _500  and  _501
REMARK                            x       y       z     vdW  Elec       q    Type
REMARK                         _______ _______ _______ _____ _____    ______ ____
ROOT
ATOM      1  CA  THR A   1      10.266   9.340  -3.470  0.00  0.00    +0.160 C 
ENDROOT
BRANCH   1   2
ATOM      2  N   THR A   1       9.804   8.781  -2.206  0.00  0.00    -0.237 NA
ATOM      3  H   THR A   1      10.472   8.263  -1.600  0.00  0.00    +0.142 HD
ENDBRANCH   1   2
BRANCH   1   4
ATOM      4  CB  THR A   1      11.390  10.369  -3.293  0.00  0.00    +0.134 C 
ATOM      5  CG2 THR A   1      10.846  11.558  -2.513  0.00  0.00    +0.034 C 
BRANCH   4   6
ATOM      6  OG1 THR A   1      12.494   9.837  -2.549  0.00  0.00    -0.383 OA
ATOM      7  HG1 THR A   1      12.183   9.561  -1.651  0.00  0.00    +0.210 HD
ENDBRANCH   4   6
ENDBRANCH   1   4
BRANCH   1   8
ATOM      8  C   THR A   1      10.830   8.233  -4.368  0.00  0.00    +0.227 C 
ATOM      9  O   THR A   1      11.289   7.192  -3.881  0.00  0.00    -0.287 OA
ENDBRANCH   1   8
TORSDOF 4
REMARK  Name = ../refined-set-2016/2fmb/2fmb_pocket.pdb
REMARK  206 active torsions:
REMARK  status: ('A' for Active; 'I' for Inactive)
REMARK    1  A    between atoms: _1  and  _3
REMARK    2  A    between atoms: _3  and  _4
REMARK    3  A    between atoms: _3  and  _6
REMARK    4  A    between atoms: _6  and  _7
REMARK    5  A    between atoms: _7  and  _8
REMARK    6  A    between atoms: _8  and  _9
REMARK    7  A    between atoms: _18  and  _20
REMARK    8  A    between atoms: _20  and  _21
REMARK    9  A    between atoms: _20  and  _23
REMARK   10  A    between atoms: _23  and  _24
REMARK   11  A    between atoms: _27  and  _29
REMARK   12  A    between atoms: _29  and  _30
REMARK   13  A    between atoms: _29  and  _32
REMARK   14  A    between atoms: _32  and  _33
REMARK   15  A    between atoms: _36  and  _38
REMARK   16  A    between atoms: _38  and  _39
REMARK   17  A    between atoms: _38  and  _41
REMARK   18  A    between atoms: _41  and  _42
REMARK   19  A    between atoms: _45  and  _47
REMARK   20  A    between atoms: _47  and  _48
REMARK   21  A    between atoms: _47  and  _50
REMARK   22  A    between atoms: _50  and  _51
REMARK   23  A    between atoms: _54  and  _56
REMARK   24  A    between atoms: _56  and  _57
REMARK   25  A    between atoms: _59  and  _61
REMARK   26  A    between atoms: _61  and  _62
REMARK   27  A    between atoms: _65  and  _67
REMARK   28  A    between atoms: _67  and  _68
REMARK   29  A    between atoms: _67  and  _70
REMARK   30  A    between atoms: _70  and  _71
REMARK   31  A    between atoms: _74  and  _76
REMARK   32  A    between atoms: _76  and  _77
REMARK   33  A    between atoms: _76  and  _79
REMARK   34  A    between atoms: _79  and  _80
REMARK   35  A    between atoms: _83  and  _85
REMARK   36  A    between atoms: _85  and  _86
REMARK   37  A    between atoms: _85  and  _88
REMARK   38  A    between atoms: _88  and  _89
REMARK   39  A    between atoms: _91  and  _93
REMARK   40  A    between atoms: _93  and  _94
REMARK   41  A    between atoms: _93  and  _96
REMARK   42  A    between atoms: _99  and  _101
REMARK   43  A    between atoms: _101  and  _102
REMARK   44  A    between atoms: _101  and  _104
REMARK   45  A    between atoms: _104  and  _105
REMARK   46  A    between atoms: _108  and  _110
REMARK   47  A    between atoms: _110  and  _111
REMARK   48  A    between atoms: _113  and  _115
REMARK   49  A    between atoms: _115  and  _116
REMARK   50  A    between atoms: _115  and  _118
REMARK   51  A    between atoms: _118  and  _119
REMARK   52  A    between atoms: _122  and  _124
REMARK   53  A    between atoms: _124  and  _125
REMARK   54  A    between atoms: _127  and  _129
REMARK   55  A    between atoms: _129  and  _130
REMARK   56  A    between atoms: _132  and  _134
REMARK   57  A    between atoms: _134  and  _135
REMARK   58  A    between atoms: _134  and  _137
REMARK   59  A    between atoms: _140  and  _142
REMARK   60  A    between atoms: _142  and  _143
REMARK   61  A    between atoms: _145  and  _147
REMARK   62  A    between atoms: _147  and  _148
REMARK   63  A    between atoms: _150  and  _152
REMARK   64  A    between atoms: _152  and  _153
REMARK   65  A    between atoms: _152  and  _155
REMARK   66  A    between atoms: _155  and  _156
REMARK   67  A    between atoms: _161  and  _163
REMARK   68  A    between atoms: _163  and  _164
REMARK   69  A    between atoms: _163  and  _166
REMARK   70  A    between atoms: _169  and  _171
REMARK   71  A    between atoms: _171  and  _172
REMARK   72  A    between atoms: _171  and  _174
REMARK   73  A    between atoms: _174  and  _175
REMARK   74  A    between atoms: _178  and  _180
REMARK   75  A    between atoms: _180  and  _181
REMARK   76  A    between atoms: _180  and  _183
REMARK   77  A    between atoms: _183  and  _184
REMARK   78  A    between atoms: _188  and  _189
REMARK   79  A    between atoms: _194  and  _196
REMARK   80  A    between atoms: _196  and  _197
REMARK   81  A    between atoms: _196  and  _199
REMARK   82  A    between atoms: _202  and  _204
REMARK   83  A    between atoms: _204  and  _205
REMARK   84  A    between atoms: _204  and  _207
REMARK   85  A    between atoms: _207  and  _208
REMARK   86  A    between atoms: _211  and  _213
REMARK   87  A    between atoms: _213  and  _214
REMARK   88  A    between atoms: _213  and  _216
REMARK   89  A    between atoms: _216  and  _217
REMARK   90  A    between atoms: _220  and  _222
REMARK   91  A    between atoms: _222  and  _223
REMARK   92  A    between atoms: _222  and  _225
REMARK   93  A    between atoms: _225  and  _226
REMARK   94  A    between atoms: _229  and  _231
REMARK   95  A    between atoms: _231  and  _232
REMARK   96  A    between atoms: _234  and  _236
REMARK   97  A    between atoms: _236  and  _237
REMARK   98  A    between atoms: _236  and  _239
REMARK   99  A    between atoms: _239  and  _240
REMARK  100  A    between atoms: _240  and  _241
REMARK  101  A    between atoms: _241  and  _242
REMARK  102  A    between atoms: _251  and  _253
REMARK  103  A    between atoms: _253  and  _254
REMARK  104  A    between atoms: _253  and  _256
REMARK  105  A    between atoms: _256  and  _257
REMARK  106  A    between atoms: _257  and  _258
REMARK  107  A    between atoms: _258  and  _259
REMARK  108  A    between atoms: _268  and  _270
REMARK  109  A    between atoms: _270  and  _271
REMARK  110  A    between atoms: _270  and  _273
REMARK  111  A    between atoms: _273  and  _274
REMARK  112  A    between atoms: _277  and  _279
REMARK  113  A    between atoms: _279  and  _280
REMARK  114  A    between atoms: _279  and  _282
REMARK  115  A    between atoms: _282  and  _283
REMARK  116  A    between atoms: _286  and  _288
REMARK  117  A    between atoms: _288  and  _289
REMARK  118  A    between atoms: _288  and  _291
REMARK  119  A    between atoms: _291  and  _292
REMARK  120  A    between atoms: _295  and  _297
REMARK  121  A    between atoms: _297  and  _298
REMARK  122  A    between atoms: _297  and  _300
REMARK  123  A    between atoms: _300  and  _301
REMARK  124  A    between atoms: _304  and  _306
REMARK  125  A    between atoms: _306  and  _307
REMARK  126  A    between atoms: _306  and  _309
REMARK  127  A    between atoms: _309  and  _310
REMARK  128  A    between atoms: _313  and  _315
REMARK  129  A    between atoms: _315  and  _316
REMARK  130  A    between atoms: _318  and  _320
REMARK  131  A    between atoms: _320  and  _321
REMARK  132  A    between atoms: _324  and  _326
REMARK  133  A    between atoms: _326  and  _327
REMARK  134  A    between atoms: _326  and  _329
REMARK  135  A    between atoms: _329  and  _330
REMARK  136  A    between atoms: _333  and  _335
REMARK  137  A    between atoms: _335  and  _336
REMARK  138  A    between atoms: _335  and  _338
REMARK  139  A    between atoms: _338  and  _339
REMARK  140  A    between atoms: _342  and  _344
REMARK  141  A    between atoms: _344  and  _345
REMARK  142  A    between atoms: _344  and  _347
REMARK  143  A    between atoms: _347  and  _348
REMARK  144  A    between atoms: _350  and  _352
REMARK  145  A    between atoms: _352  and  _353
REMARK  146  A    between atoms: _352  and  _355
REMARK  147  A    between atoms: _358  and  _360
REMARK  148  A    between atoms: _360  and  _361
REMARK  149  A    between atoms: _360  and  _363
REMARK  150  A    between atoms: _363  and  _364
REMARK  151  A    between atoms: _367  and  _369
REMARK  152  A    between atoms: _369  and  _370
REMARK  153  A    between atoms: _372  and  _374
REMARK  154  A    between atoms: _374  and  _375
REMARK  155  A    between atoms: _374  and  _377
REMARK  156  A    between atoms: _377  and  _378
REMARK  157  A    between atoms: _381  and  _383
REMARK  158  A    between atoms: _383  and  _384
REMARK  159  A    between atoms: _386  and  _388
REMARK  160  A    between atoms: _388  and  _389
REMARK  161  A    between atoms: _391  and  _393
REMARK  162  A    between atoms: _393  and  _394
REMARK  163  A    between atoms: _393  and  _396
REMARK  164  A    between atoms: _399  and  _401
REMARK  165  A    between atoms: _401  and  _402
REMARK  166  A    between atoms: _404  and  _406
REMARK  167  A    between atoms: _406  and  _407
REMARK  168  A    between atoms: _409  and  _411
REMARK  169  A    between atoms: _411  and  _412
REMARK  170  A    between atoms: _411  and  _414
REMARK  171  A    between atoms: _414  and  _415
REMARK  172  A    between atoms: _420  and  _422
REMARK  173  A    between atoms: _422  and  _423
REMARK  174  A    between atoms: _422  and  _425
REMARK  175  A    between atoms: _428  and  _430
REMARK  176  A    between atoms: _430  and  _431
REMARK  177  A    between atoms: _430  and  _433
REMARK  178  A    between atoms: _433  and  _434
REMARK  179  A    between atoms: _437  and  _439
REMARK  180  A    between atoms: _439  and  _440
REMARK  181  A    between atoms: _439  and  _442
REMARK  182  A    between atoms: _442  and  _443
REMARK  183  A    between atoms: _446  and  _448
REMARK  184  A    between atoms: _448  and  _449
REMARK  185  A    between atoms: _448  and  _451
REMARK  186  A    between atoms: _451  and  _452
REMARK  187  A    between atoms: _456  and  _457
REMARK  188  A    between atoms: _462  and  _464
REMARK  189  A    between atoms: _464  and  _465
REMARK  190  A    between atoms: _464  and  _467
REMARK  191  A    between atoms: _470  and  _472
REMARK  192  A    between atoms: _472  and  _473
REMARK  193  A    between atoms: _472  and  _475
REMARK  194  A    between atoms: _475  and  _476
REMARK  195  A    between atoms: _479  and  _481
REMARK  196  A    between atoms: _481  and  _482
REMARK  197  A    between atoms: _481  and  _484
REMARK  198  A    between atoms: _484  and  _485
REMARK  199  A    between atoms: _488  and  _490
REMARK  200  A    between atoms: _490  and  _491
REMARK  201  A    between atoms: _493  and  _495
REMARK  202  A    between atoms: _495  and  _496
REMARK  203  A    between atoms: _495  and  _498
REMARK  204  A    between atoms: _498  and  _499
REMARK  205  A    between atoms: _499  and  _500
REMARK  206  A    between atoms: _500  and  _501
REMARK                            x       y       z     vdW  Elec       q    Type
REMARK                         _______ _______ _______ _____ _____    ______ ____
ROOT
ATOM      1  C   GLY A   5      -2.988  14.787  -2.030  0.00  0.00    +0.243 C 
ATOM      2  O   GLY A   5      -3.458  15.912  -1.808  0.00  0.00    -0.273 OA
ATOM      3  N   ALA A   6      -2.496  14.473  -3.236  0.00  0.00    -0.297 N 
ATOM      4  H   ALA A   6      -2.088  13.527  -3.379  0.00  0.00    +0.150 HD
ENDROOT
BRANCH   3   5
ATOM      5  CA  ALA A   6      -2.511  15.407  -4.354  0.00  0.00    +0.149 C 
ATOM      6  CB  ALA A   6      -1.104  15.547  -4.993  0.00  0.00    +0.031 C 
BRANCH   5   7
ATOM      7  C   ALA A   6      -3.470  14.782  -5.339  0.00  0.00    +0.241 C 
ATOM      8  N   ASP A   7      -4.482  15.603  -5.716  0.00  0.00    -0.297 N 
ATOM      9  H   ASP A   7      -4.544  16.563  -5.321  0.00  0.00    +0.150 HD
ATOM     10  O   ALA A   6      -3.381  13.638  -5.796  0.00  0.00    -0.273 OA
BRANCH   8  11
ATOM     11  CA  ASP A   7      -5.479  15.147  -6.668  0.00  0.00    +0.160 C 
BRANCH  11  12
ATOM     12  C   ASP A   7      -4.938  14.946  -8.088  0.00  0.00    +0.241 C 
ATOM     13  N   THR A   8      -3.924  15.745  -8.364  0.00  0.00    -0.295 N 
ATOM     14  H   THR A   8      -3.547  16.375  -7.627  0.00  0.00    +0.150 HD
ATOM     15  O   ASP A   7      -5.438  14.114  -8.852  0.00  0.00    -0.273 OA
BRANCH  13  16
ATOM     16  CA  THR A   8      -3.329  15.751  -9.694  0.00  0.00    +0.176 C 
BRANCH  16  17
ATOM     17  C   THR A   8      -1.818  15.961  -9.573  0.00  0.00    +0.243 C 
ATOM     18  O   THR A   8      -1.301  16.407  -8.554  0.00  0.00    -0.273 OA
ATOM     19  N   SER A   9      -1.076  15.581 -10.611  0.00  0.00    -0.295 N 
ATOM     20  H   SER A   9      -1.559  15.223 -11.460  0.00  0.00    +0.150 HD
BRANCH  19  21
ATOM     21  CA  SER A   9       0.396  15.642 -10.617  0.00  0.00    +0.178 C 
BRANCH  21  22
ATOM     22  C   SER A   9       0.921  17.003 -11.075  0.00  0.00    +0.243 C 
ATOM     23  N   VAL A  10       1.984  17.468 -10.445  0.00  0.00    -0.298 N 
ATOM     24  H   VAL A  10       2.445  16.908  -9.700  0.00  0.00    +0.150 HD
ATOM     25  O   SER A   9       0.312  17.563 -12.004  0.00  0.00    -0.273 OA
BRANCH  23  26
ATOM     26  CA  VAL A  10       2.501  18.782 -10.813  0.00  0.00    +0.137 C 
BRANCH  26  27
ATOM     27  CB  VAL A  10       2.153  19.775  -9.659  0.00  0.00    +0.026 C 
ATOM     28  CG2 VAL A  10       0.634  19.716  -9.400  0.00  0.00    +0.002 C 
ATOM     29  CG1 VAL A  10       2.490  21.227 -10.016  0.00  0.00    +0.002 C 
ENDBRANCH  26  27
BRANCH  26  30
ATOM     30  C   VAL A  10       4.020  18.743 -10.896  0.00  0.00    +0.227 C 
ATOM     31  O   VAL A  10       4.730  18.311 -10.005  0.00  0.00    -0.286 OA
ENDBRANCH  26  30
ENDBRANCH  23  26
ENDBRANCH  21  22
BRANCH  21  32
ATOM     32  CB  SER A   9       0.877  14.545 -11.533  0.00  0.00    +0.166 C 
BRANCH  32  33
ATOM     33  OG  SER A   9       0.446  13.279 -11.028  0.00  0.00    -0.380 OA
ATOM     34  H   SER A   9      -0.543  13.262 -10.983  0.00  0.00    +0.211 HD
ENDBRANCH  32  33
ENDBRANCH  21  32
ENDBRANCH  19  21
ENDBRANCH  16  17
BRANCH  16  35
ATOM     35  CB  THR A   8      -4.052  16.880 -10.482  0.00  0.00    +0.137 C 
ATOM     36  CG2 THR A   8      -3.544  18.244 -10.079  0.00  0.00    +0.034 C 
BRANCH  35  37
ATOM     37  OG1 THR A   8      -3.640  16.724 -11.836  0.00  0.00    -0.382 OA
ATOM     38  HG1 THR A   8      -2.656  16.816 -11.893  0.00  0.00    +0.210 HD
ENDBRANCH  35  37
ENDBRANCH  16  35
ENDBRANCH  13  16
ENDBRANCH  11  12
BRANCH  11  39
ATOM     39  CB  ASP A   7      -6.598  16.194  -6.866  0.00  0.00    +0.143 C 
BRANCH  39  40
ATOM     40  CG  ASP A   7      -7.466  16.281  -5.621  0.00  0.00    +0.367 C 
ATOM     41  OD2 ASP A   7      -7.576  15.398  -4.750  0.00  0.00    -0.246 OA
ATOM     42  OD1 ASP A   7      -8.121  17.315  -5.520  0.00  0.00    -0.246 OA
ENDBRANCH  39  40
ENDBRANCH  11  39
ENDBRANCH   8  11
ENDBRANCH   5   7
ENDBRANCH   3   5
BRANCH   1  43
ATOM     43  CA  GLY A   5      -2.949  13.868  -0.837  0.00  0.00    +0.176 C 
BRANCH  43  45
ATOM     44  C   THR A   4      -2.677  11.582  -1.755  0.00  0.00    +0.243 C 
ATOM     45  N   GLY A   5      -2.207  12.642  -1.140  0.00  0.00    -0.295 N 
ATOM     46  H   GLY A   5      -1.212  12.608  -0.839  0.00  0.00    +0.150 HD
ATOM     47  O   THR A   4      -3.861  11.446  -2.063  0.00  0.00    -0.273 OA
BRANCH  44  48
ATOM     48  CA  THR A   4      -1.769  10.396  -2.077  0.00  0.00    +0.176 C 
BRANCH  48  50
ATOM     49  C   ASP A   3       0.091  11.632  -2.986  0.00  0.00    +0.241 C 
ATOM     50  N   THR A   4      -0.337  10.788  -2.036  0.00  0.00    -0.295 N 
ATOM     51  H   THR A   4       0.305  10.424  -1.303  0.00  0.00    +0.150 HD
ATOM     52  O   ASP A   3      -0.570  12.117  -3.920  0.00  0.00    -0.273 OA
BRANCH  49  53
ATOM     53  CA  ASP A   3       1.569  11.933  -2.901  0.00  0.00    +0.160 C 
BRANCH  53  56
ATOM     54  C   LEU A   2       3.451  10.503  -3.294  0.00  0.00    +0.241 C 
ATOM     55  O   LEU A   2       3.651  10.270  -2.107  0.00  0.00    -0.273 OA
ATOM     56  N   ASP A   3       2.462  11.217  -3.801  0.00  0.00    -0.297 N 
ATOM     57  H   ASP A   3       2.323  11.267  -4.830  0.00  0.00    +0.150 HD
BRANCH  54  58
ATOM     58  CA  LEU A   2       4.420  10.022  -4.402  0.00  0.00    +0.149 C 
BRANCH  58  60
ATOM     59  C   LEU A   1       6.024  11.873  -4.748  0.00  0.00    +0.238 C 
ATOM     60  N   LEU A   2       5.692  10.741  -4.072  0.00  0.00    -0.297 N 
ATOM     61  H   LEU A   2       6.320  10.375  -3.328  0.00  0.00    +0.150 HD
ATOM     62  O   LEU A   1       5.290  12.371  -5.610  0.00  0.00    -0.274 OA
BRANCH  59  63
ATOM     63  CA  LEU A   1       7.297  12.652  -4.417  0.00  0.00    +0.145 C 
BRANCH  63  64
ATOM     64  N   LEU A   1       7.904  13.030  -5.695  0.00  0.00    -0.238 NA
ATOM     65  H   LEU A   1       7.610  13.910  -6.166  0.00  0.00    +0.142 HD
ENDBRANCH  63  64
BRANCH  63  66
ATOM     66  CB  LEU A   1       6.909  13.863  -3.567  0.00  0.00    +0.026 C 
BRANCH  66  67
ATOM     67  CG  LEU A   1       6.134  13.651  -2.271  0.00  0.00    +0.002 C 
ATOM     68  CD2 LEU A   1       6.953  12.865  -1.286  0.00  0.00    +0.000 C 
ATOM     69  CD1 LEU A   1       5.765  15.003  -1.660  0.00  0.00    +0.000 C 
ENDBRANCH  66  67
ENDBRANCH  63  66
ENDBRANCH  59  63
ENDBRANCH  58  60
BRANCH  58  70
ATOM     70  CB  LEU A   2       4.716   8.543  -4.211  0.00  0.00    +0.029 C 
BRANCH  70  71
ATOM     71  CG  LEU A   2       5.900   8.120  -5.145  0.00  0.00    +0.002 C 
ATOM     72  CD2 LEU A   2       6.206   6.651  -4.820  0.00  0.00    +0.000 C 
ATOM     73  CD1 LEU A   2       5.506   8.219  -6.581  0.00  0.00    +0.000 C 
ENDBRANCH  70  71
ENDBRANCH  58  70
ENDBRANCH  54  58
ENDBRANCH  53  56
BRANCH  53  74
ATOM     74  CB  ASP A   3       1.830  13.438  -3.160  0.00  0.00    +0.143 C 
BRANCH  74  75
ATOM     75  CG  ASP A   3       1.119  14.401  -2.231  0.00  0.00    +0.367 C 
ATOM     76  OD2 ASP A   3       0.451  13.963  -1.294  0.00  0.00    -0.246 OA
ATOM     77  OD1 ASP A   3       1.224  15.590  -2.531  0.00  0.00    -0.246 OA
ENDBRANCH  74  75
ENDBRANCH  53  74
ENDBRANCH  49  53
ENDBRANCH  48  50
BRANCH  48  78
ATOM     78  CB  THR A   4      -2.098   9.257  -1.125  0.00  0.00    +0.137 C 
ATOM     79  CG2 THR A   4      -1.226   8.035  -1.453  0.00  0.00    +0.034 C 
BRANCH  78  80
ATOM     80  OG1 THR A   4      -1.682   9.707   0.175  0.00  0.00    -0.382 OA
ATOM     81  HG1 THR A   4      -2.178  10.530   0.412  0.00  0.00    +0.210 HD
ENDBRANCH  78  80
ENDBRANCH  48  78
ENDBRANCH  44  48
ENDBRANCH  43  45
ENDBRANCH   1  43
TORSDOF 35
REMARK  Name = ../refined-set-2016/2fmb/2fmb_pocket.pdb
REMARK  206 active torsions:
REMARK  status: ('A' for Active; 'I' for Inactive)
REMARK    1  A    between atoms: _1  and  _3
REMARK    2  A    between atoms: _3  and  _4
REMARK    3  A    between atoms: _3  and  _6
REMARK    4  A    between atoms: _6  and  _7
REMARK    5  A    between atoms: _7  and  _8
REMARK    6  A    between atoms: _8  and  _9
REMARK    7  A    between atoms: _18  and  _20
REMARK    8  A    between atoms: _20  and  _21
REMARK    9  A    between atoms: _20  and  _23
REMARK   10  A    between atoms: _23  and  _24
REMARK   11  A    between atoms: _27  and  _29
REMARK   12  A    between atoms: _29  and  _30
REMARK   13  A    between atoms: _29  and  _32
REMARK   14  A    between atoms: _32  and  _33
REMARK   15  A    between atoms: _36  and  _38
REMARK   16  A    between atoms: _38  and  _39
REMARK   17  A    between atoms: _38  and  _41
REMARK   18  A    between atoms: _41  and  _42
REMARK   19  A    between atoms: _45  and  _47
REMARK   20  A    between atoms: _47  and  _48
REMARK   21  A    between atoms: _47  and  _50
REMARK   22  A    between atoms: _50  and  _51
REMARK   23  A    between atoms: _54  and  _56
REMARK   24  A    between atoms: _56  and  _57
REMARK   25  A    between atoms: _59  and  _61
REMARK   26  A    between atoms: _61  and  _62
REMARK   27  A    between atoms: _65  and  _67
REMARK   28  A    between atoms: _67  and  _68
REMARK   29  A    between atoms: _67  and  _70
REMARK   30  A    between atoms: _70  and  _71
REMARK   31  A    between atoms: _74  and  _76
REMARK   32  A    between atoms: _76  and  _77
REMARK   33  A    between atoms: _76  and  _79
REMARK   34  A    between atoms: _79  and  _80
REMARK   35  A    between atoms: _83  and  _85
REMARK   36  A    between atoms: _85  and  _86
REMARK   37  A    between atoms: _85  and  _88
REMARK   38  A    between atoms: _88  and  _89
REMARK   39  A    between atoms: _91  and  _93
REMARK   40  A    between atoms: _93  and  _94
REMARK   41  A    between atoms: _93  and  _96
REMARK   42  A    between atoms: _99  and  _101
REMARK   43  A    between atoms: _101  and  _102
REMARK   44  A    between atoms: _101  and  _104
REMARK   45  A    between atoms: _104  and  _105
REMARK   46  A    between atoms: _108  and  _110
REMARK   47  A    between atoms: _110  and  _111
REMARK   48  A    between atoms: _113  and  _115
REMARK   49  A    between atoms: _115  and  _116
REMARK   50  A    between atoms: _115  and  _118
REMARK   51  A    between atoms: _118  and  _119
REMARK   52  A    between atoms: _122  and  _124
REMARK   53  A    between atoms: _124  and  _125
REMARK   54  A    between atoms: _127  and  _129
REMARK   55  A    between atoms: _129  and  _130
REMARK   56  A    between atoms: _132  and  _134
REMARK   57  A    between atoms: _134  and  _135
REMARK   58  A    between atoms: _134  and  _137
REMARK   59  A    between atoms: _140  and  _142
REMARK   60  A    between atoms: _142  and  _143
REMARK   61  A    between atoms: _145  and  _147
REMARK   62  A    between atoms: _147  and  _148
REMARK   63  A    between atoms: _150  and  _152
REMARK   64  A    between atoms: _152  and  _153
REMARK   65  A    between atoms: _152  and  _155
REMARK   66  A    between atoms: _155  and  _156
REMARK   67  A    between atoms: _161  and  _163
REMARK   68  A    between atoms: _163  and  _164
REMARK   69  A    between atoms: _163  and  _166
REMARK   70  A    between atoms: _169  and  _171
REMARK   71  A    between atoms: _171  and  _172
REMARK   72  A    between atoms: _171  and  _174
REMARK   73  A    between atoms: _174  and  _175
REMARK   74  A    between atoms: _178  and  _180
REMARK   75  A    between atoms: _180  and  _181
REMARK   76  A    between atoms: _180  and  _183
REMARK   77  A    between atoms: _183  and  _184
REMARK   78  A    between atoms: _188  and  _189
REMARK   79  A    between atoms: _194  and  _196
REMARK   80  A    between atoms: _196  and  _197
REMARK   81  A    between atoms: _196  and  _199
REMARK   82  A    between atoms: _202  and  _204
REMARK   83  A    between atoms: _204  and  _205
REMARK   84  A    between atoms: _204  and  _207
REMARK   85  A    between atoms: _207  and  _208
REMARK   86  A    between atoms: _211  and  _213
REMARK   87  A    between atoms: _213  and  _214
REMARK   88  A    between atoms: _213  and  _216
REMARK   89  A    between atoms: _216  and  _217
REMARK   90  A    between atoms: _220  and  _222
REMARK   91  A    between atoms: _222  and  _223
REMARK   92  A    between atoms: _222  and  _225
REMARK   93  A    between atoms: _225  and  _226
REMARK   94  A    between atoms: _229  and  _231
REMARK   95  A    between atoms: _231  and  _232
REMARK   96  A    between atoms: _234  and  _236
REMARK   97  A    between atoms: _236  and  _237
REMARK   98  A    between atoms: _236  and  _239
REMARK   99  A    between atoms: _239  and  _240
REMARK  100  A    between atoms: _240  and  _241
REMARK  101  A    between atoms: _241  and  _242
REMARK  102  A    between atoms: _251  and  _253
REMARK  103  A    between atoms: _253  and  _254
REMARK  104  A    between atoms: _253  and  _256
REMARK  105  A    between atoms: _256  and  _257
REMARK  106  A    between atoms: _257  and  _258
REMARK  107  A    between atoms: _258  and  _259
REMARK  108  A    between atoms: _268  and  _270
REMARK  109  A    between atoms: _270  and  _271
REMARK  110  A    between atoms: _270  and  _273
REMARK  111  A    between atoms: _273  and  _274
REMARK  112  A    between atoms: _277  and  _279
REMARK  113  A    between atoms: _279  and  _280
REMARK  114  A    between atoms: _279  and  _282
REMARK  115  A    between atoms: _282  and  _283
REMARK  116  A    between atoms: _286  and  _288
REMARK  117  A    between atoms: _288  and  _289
REMARK  118  A    between atoms: _288  and  _291
REMARK  119  A    between atoms: _291  and  _292
REMARK  120  A    between atoms: _295  and  _297
REMARK  121  A    between atoms: _297  and  _298
REMARK  122  A    between atoms: _297  and  _300
REMARK  123  A    between atoms: _300  and  _301
REMARK  124  A    between atoms: _304  and  _306
REMARK  125  A    between atoms: _306  and  _307
REMARK  126  A    between atoms: _306  and  _309
REMARK  127  A    between atoms: _309  and  _310
REMARK  128  A    between atoms: _313  and  _315
REMARK  129  A    between atoms: _315  and  _316
REMARK  130  A    between atoms: _318  and  _320
REMARK  131  A    between atoms: _320  and  _321
REMARK  132  A    between atoms: _324  and  _326
REMARK  133  A    between atoms: _326  and  _327
REMARK  134  A    between atoms: _326  and  _329
REMARK  135  A    between atoms: _329  and  _330
REMARK  136  A    between atoms: _333  and  _335
REMARK  137  A    between atoms: _335  and  _336
REMARK  138  A    between atoms: _335  and  _338
REMARK  139  A    between atoms: _338  and  _339
REMARK  140  A    between atoms: _342  and  _344
REMARK  141  A    between atoms: _344  and  _345
REMARK  142  A    between atoms: _344  and  _347
REMARK  143  A    between atoms: _347  and  _348
REMARK  144  A    between atoms: _350  and  _352
REMARK  145  A    between atoms: _352  and  _353
REMARK  146  A    between atoms: _352  and  _355
REMARK  147  A    between atoms: _358  and  _360
REMARK  148  A    between atoms: _360  and  _361
REMARK  149  A    between atoms: _360  and  _363
REMARK  150  A    between atoms: _363  and  _364
REMARK  151  A    between atoms: _367  and  _369
REMARK  152  A    between atoms: _369  and  _370
REMARK  153  A    between atoms: _372  and  _374
REMARK  154  A    between atoms: _374  and  _375
REMARK  155  A    between atoms: _374  and  _377
REMARK  156  A    between atoms: _377  and  _378
REMARK  157  A    between atoms: _381  and  _383
REMARK  158  A    between atoms: _383  and  _384
REMARK  159  A    between atoms: _386  and  _388
REMARK  160  A    between atoms: _388  and  _389
REMARK  161  A    between atoms: _391  and  _393
REMARK  162  A    between atoms: _393  and  _394
REMARK  163  A    between atoms: _393  and  _396
REMARK  164  A    between atoms: _399  and  _401
REMARK  165  A    between atoms: _401  and  _402
REMARK  166  A    between atoms: _404  and  _406
REMARK  167  A    between atoms: _406  and  _407
REMARK  168  A    between atoms: _409  and  _411
REMARK  169  A    between atoms: _411  and  _412
REMARK  170  A    between atoms: _411  and  _414
REMARK  171  A    between atoms: _414  and  _415
REMARK  172  A    between atoms: _420  and  _422
REMARK  173  A    between atoms: _422  and  _423
REMARK  174  A    between atoms: _422  and  _425
REMARK  175  A    between atoms: _428  and  _430
REMARK  176  A    between atoms: _430  and  _431
REMARK  177  A    between atoms: _430  and  _433
REMARK  178  A    between atoms: _433  and  _434
REMARK  179  A    between atoms: _437  and  _439
REMARK  180  A    between atoms: _439  and  _440
REMARK  181  A    between atoms: _439  and  _442
REMARK  182  A    between atoms: _442  and  _443
REMARK  183  A    between atoms: _446  and  _448
REMARK  184  A    between atoms: _448  and  _449
REMARK  185  A    between atoms: _448  and  _451
REMARK  186  A    between atoms: _451  and  _452
REMARK  187  A    between atoms: _456  and  _457
REMARK  188  A    between atoms: _462  and  _464
REMARK  189  A    between atoms: _464  and  _465
REMARK  190  A    between atoms: _464  and  _467
REMARK  191  A    between atoms: _470  and  _472
REMARK  192  A    between atoms: _472  and  _473
REMARK  193  A    between atoms: _472  and  _475
REMARK  194  A    between atoms: _475  and  _476
REMARK  195  A    between atoms: _479  and  _481
REMARK  196  A    between atoms: _481  and  _482
REMARK  197  A    between atoms: _481  and  _484
REMARK  198  A    between atoms: _484  and  _485
REMARK  199  A    between atoms: _488  and  _490
REMARK  200  A    between atoms: _490  and  _491
REMARK  201  A    between atoms: _493  and  _495
REMARK  202  A    between atoms: _495  and  _496
REMARK  203  A    between atoms: _495  and  _498
REMARK  204  A    between atoms: _498  and  _499
REMARK  205  A    between atoms: _499  and  _500
REMARK  206  A    between atoms: _500  and  _501
REMARK                            x       y       z     vdW  Elec       q    Type
REMARK                         _______ _______ _______ _____ _____    ______ ____
ROOT
ATOM      1  C   GLY A   5      -2.870  24.467   0.256  0.00  0.00    +0.243 C 
ATOM      2  N   VAL A   6      -2.015  24.039   1.172  0.00  0.00    -0.297 N 
ATOM      3  H   VAL A   6      -1.387  23.246   0.931  0.00  0.00    +0.150 HD
ATOM      4  O   GLY A   5      -3.678  25.429   0.438  0.00  0.00    -0.273 OA
ENDROOT
BRANCH   2   5
ATOM      5  CA  VAL A   6      -1.912  24.627   2.506  0.00  0.00    +0.149 C 
BRANCH   5   6
ATOM      6  C   VAL A   6      -1.733  26.139   2.473  0.00  0.00    +0.241 C 
ATOM      7  O   VAL A   6      -2.363  26.839   3.278  0.00  0.00    -0.273 OA
ATOM      8  N   GLY A   7      -0.916  26.695   1.575  0.00  0.00    -0.295 N 
ATOM      9  H   GLY A   7      -0.431  26.083   0.888  0.00  0.00    +0.150 HD
BRANCH   8  10
ATOM     10  CA  GLY A   7      -0.683  28.133   1.528  0.00  0.00    +0.176 C 
BRANCH  10  11
ATOM     11  C   GLY A   7      -1.551  28.971   0.608  0.00  0.00    +0.243 C 
ATOM     12  O   GLY A   7      -1.280  30.177   0.460  0.00  0.00    -0.273 OA
ATOM     13  N   GLY A   8      -2.594  28.433  -0.001  0.00  0.00    -0.295 N 
ATOM     14  H   GLY A   8      -2.808  27.430   0.171  0.00  0.00    +0.150 HD
BRANCH  13  15
ATOM     15  CA  GLY A   8      -3.450  29.179  -0.896  0.00  0.00    +0.176 C 
BRANCH  15  16
ATOM     16  C   GLY A   8      -3.392  28.558  -2.300  0.00  0.00    +0.243 C 
ATOM     17  O   GLY A   8      -3.108  27.372  -2.436  0.00  0.00    -0.273 OA
ATOM     18  N   ASN A   9      -3.646  29.372  -3.317  0.00  0.00    -0.297 N 
ATOM     19  H   ASN A   9      -3.813  30.381  -3.128  0.00  0.00    +0.150 HD
BRANCH  18  20
ATOM     20  CA  ASN A   9      -3.697  28.896  -4.678  0.00  0.00    +0.158 C 
BRANCH  20  21
ATOM     21  C   ASN A   9      -2.492  29.335  -5.487  0.00  0.00    +0.241 C 
ATOM     22  O   ASN A   9      -1.995  30.368  -5.057  0.00  0.00    -0.273 OA
ATOM     23  N   VAL A  10      -2.198  28.534  -6.535  0.00  0.00    -0.298 N 
ATOM     24  H   VAL A  10      -2.767  27.695  -6.765  0.00  0.00    +0.150 HD
BRANCH  23  25
ATOM     25  CA  VAL A  10      -1.028  28.921  -7.326  0.00  0.00    +0.137 C 
BRANCH  25  26
ATOM     26  CB  VAL A  10       0.053  28.066  -6.652  0.00  0.00    +0.026 C 
ATOM     27  CG2 VAL A  10       1.306  28.807  -6.279  0.00  0.00    +0.002 C 
ATOM     28  CG1 VAL A  10       0.300  26.814  -7.429  0.00  0.00    +0.002 C 
ENDBRANCH  25  26
BRANCH  25  29
ATOM     29  C   VAL A  10      -1.445  28.669  -8.760  0.00  0.00    +0.227 C 
ATOM     30  O   VAL A  10      -2.187  27.747  -9.052  0.00  0.00    -0.286 OA
ENDBRANCH  25  29
ENDBRANCH  23  25
ENDBRANCH  20  21
BRANCH  20  31
ATOM     31  CB  ASN A   9      -4.906  29.569  -5.354  0.00  0.00    +0.114 C 
BRANCH  31  32
ATOM     32  CG  ASN A   9      -6.232  29.162  -4.704  0.00  0.00    +0.222 C 
ATOM     33  ND2 ASN A   9      -7.059  30.159  -4.401  0.00  0.00    -0.329 N 
ATOM     34 HD21 ASN A   9      -7.964  29.959  -3.930  0.00  0.00    +0.145 HD
ATOM     35 HD22 ASN A   9      -6.800  31.139  -4.635  0.00  0.00    +0.145 HD
ATOM     36  OD1 ASN A   9      -6.490  27.989  -4.449  0.00  0.00    -0.275 OA
ENDBRANCH  31  32
ENDBRANCH  20  31
ENDBRANCH  18  20
ENDBRANCH  15  16
ENDBRANCH  13  15
ENDBRANCH  10  11
ENDBRANCH   8  10
ENDBRANCH   5   6
BRANCH   5  37
ATOM     37  CB  VAL A   6      -0.769  23.868   3.214  0.00  0.00    +0.027 C 
ATOM     38  CG2 VAL A   6       0.069  24.697   4.161  0.00  0.00    +0.002 C 
ATOM     39  CG1 VAL A   6      -1.317  22.649   3.953  0.00  0.00    +0.002 C 
ENDBRANCH   5  37
ENDBRANCH   2   5
BRANCH   1  40
ATOM     40  CA  GLY A   5      -2.818  23.632  -1.032  0.00  0.00    +0.176 C 
BRANCH  40  42
ATOM     41  C   GLY A   4      -3.979  23.887  -3.130  0.00  0.00    +0.243 C 
ATOM     42  N   GLY A   5      -3.505  24.460  -2.038  0.00  0.00    -0.295 N 
ATOM     43  H   GLY A   5      -3.616  25.484  -1.890  0.00  0.00    +0.150 HD
ATOM     44  O   GLY A   4      -3.910  22.694  -3.436  0.00  0.00    -0.273 OA
BRANCH  41  45
ATOM     45  CA  GLY A   4      -4.620  24.908  -4.043  0.00  0.00    +0.176 C 
BRANCH  45  47
ATOM     46  C   ILE A   3      -4.208  25.077  -6.434  0.00  0.00    +0.241 C 
ATOM     47  N   GLY A   4      -4.660  24.397  -5.392  0.00  0.00    -0.295 N 
ATOM     48  H   GLY A   4      -5.062  23.452  -5.553  0.00  0.00    +0.150 HD
ATOM     49  O   ILE A   3      -3.618  26.163  -6.313  0.00  0.00    -0.273 OA
BRANCH  46  50
ATOM     50  CA  ILE A   3      -4.294  24.413  -7.798  0.00  0.00    +0.149 C 
BRANCH  50  52
ATOM     51  C   GLY A   2      -4.859  25.519  -9.871  0.00  0.00    +0.243 C 
ATOM     52  N   ILE A   3      -4.141  25.497  -8.761  0.00  0.00    -0.297 N 
ATOM     53  H   ILE A   3      -3.460  26.260  -8.573  0.00  0.00    +0.150 HD
ATOM     54  O   GLY A   2      -5.596  24.608 -10.237  0.00  0.00    -0.273 OA
BRANCH  51  55
ATOM     55  CA  GLY A   2      -4.585  26.747 -10.677  0.00  0.00    +0.176 C 
BRANCH  55  58
ATOM     56  C   THR A   1      -6.406  27.069 -12.327  0.00  0.00    +0.241 C 
ATOM     57  O   THR A   1      -7.299  27.126 -11.485  0.00  0.00    -0.274 OA
ATOM     58  N   GLY A   2      -5.166  26.863 -11.954  0.00  0.00    -0.295 N 
ATOM     59  H   GLY A   2      -4.492  26.769 -12.741  0.00  0.00    +0.150 HD
BRANCH  56  60
ATOM     60  CA  THR A   1      -6.746  27.309 -13.804  0.00  0.00    +0.172 C 
BRANCH  60  61
ATOM     61  N   THR A   1      -5.964  26.554 -14.792  0.00  0.00    -0.236 NA
ATOM     62  H   THR A   1      -6.015  25.516 -14.767  0.00  0.00    +0.142 HD
ENDBRANCH  60  61
BRANCH  60  63
ATOM     63  CB  THR A   1      -8.235  26.950 -13.892  0.00  0.00    +0.135 C 
ATOM     64  CG2 THR A   1      -8.774  27.242 -15.292  0.00  0.00    +0.034 C 
BRANCH  63  65
ATOM     65  OG1 THR A   1      -8.359  25.532 -13.619  0.00  0.00    -0.383 OA
ATOM     66  HG1 THR A   1      -8.010  25.340 -12.713  0.00  0.00    +0.210 HD
ENDBRANCH  63  65
ENDBRANCH  60  63
ENDBRANCH  56  60
ENDBRANCH  55  58
ENDBRANCH  51  55
ENDBRANCH  50  52
BRANCH  50  67
ATOM     67  CB  ILE A   3      -3.184  23.321  -7.872  0.00  0.00    +0.027 C 
ATOM     68  CG2 ILE A   3      -3.379  22.382  -9.030  0.00  0.00    +0.002 C 
BRANCH  67  69
ATOM     69  CG1 ILE A   3      -1.856  24.035  -7.784  0.00  0.00    +0.002 C 
ATOM     70  CD1 ILE A   3      -0.680  23.144  -7.548  0.00  0.00    +0.000 C 
ENDBRANCH  67  69
ENDBRANCH  50  67
ENDBRANCH  46  50
ENDBRANCH  45  47
ENDBRANCH  41  45
ENDBRANCH  40  42
ENDBRANCH   1  40
TORSDOF 28
REMARK  Name = ../refined-set-2016/2fmb/2fmb_pocket.pdb
REMARK  206 active torsions:
REMARK  status: ('A' for Active; 'I' for Inactive)
REMARK    1  A    between atoms: _1  and  _3
REMARK    2  A    between atoms: _3  and  _4
REMARK    3  A    between atoms: _3  and  _6
REMARK    4  A    between atoms: _6  and  _7
REMARK    5  A    between atoms: _7  and  _8
REMARK    6  A    between atoms: _8  and  _9
REMARK    7  A    between atoms: _18  and  _20
REMARK    8  A    between atoms: _20  and  _21
REMARK    9  A    between atoms: _20  and  _23
REMARK   10  A    between atoms: _23  and  _24
REMARK   11  A    between atoms: _27  and  _29
REMARK   12  A    between atoms: _29  and  _30
REMARK   13  A    between atoms: _29  and  _32
REMARK   14  A    between atoms: _32  and  _33
REMARK   15  A    between atoms: _36  and  _38
REMARK   16  A    between atoms: _38  and  _39
REMARK   17  A    between atoms: _38  and  _41
REMARK   18  A    between atoms: _41  and  _42
REMARK   19  A    between atoms: _45  and  _47
REMARK   20  A    between atoms: _47  and  _48
REMARK   21  A    between atoms: _47  and  _50
REMARK   22  A    between atoms: _50  and  _51
REMARK   23  A    between atoms: _54  and  _56
REMARK   24  A    between atoms: _56  and  _57
REMARK   25  A    between atoms: _59  and  _61
REMARK   26  A    between atoms: _61  and  _62
REMARK   27  A    between atoms: _65  and  _67
REMARK   28  A    between atoms: _67  and  _68
REMARK   29  A    between atoms: _67  and  _70
REMARK   30  A    between atoms: _70  and  _71
REMARK   31  A    between atoms: _74  and  _76
REMARK   32  A    between atoms: _76  and  _77
REMARK   33  A    between atoms: _76  and  _79
REMARK   34  A    between atoms: _79  and  _80
REMARK   35  A    between atoms: _83  and  _85
REMARK   36  A    between atoms: _85  and  _86
REMARK   37  A    between atoms: _85  and  _88
REMARK   38  A    between atoms: _88  and  _89
REMARK   39  A    between atoms: _91  and  _93
REMARK   40  A    between atoms: _93  and  _94
REMARK   41  A    between atoms: _93  and  _96
REMARK   42  A    between atoms: _99  and  _101
REMARK   43  A    between atoms: _101  and  _102
REMARK   44  A    between atoms: _101  and  _104
REMARK   45  A    between atoms: _104  and  _105
REMARK   46  A    between atoms: _108  and  _110
REMARK   47  A    between atoms: _110  and  _111
REMARK   48  A    between atoms: _113  and  _115
REMARK   49  A    between atoms: _115  and  _116
REMARK   50  A    between atoms: _115  and  _118
REMARK   51  A    between atoms: _118  and  _119
REMARK   52  A    between atoms: _122  and  _124
REMARK   53  A    between atoms: _124  and  _125
REMARK   54  A    between atoms: _127  and  _129
REMARK   55  A    between atoms: _129  and  _130
REMARK   56  A    between atoms: _132  and  _134
REMARK   57  A    between atoms: _134  and  _135
REMARK   58  A    between atoms: _134  and  _137
REMARK   59  A    between atoms: _140  and  _142
REMARK   60  A    between atoms: _142  and  _143
REMARK   61  A    between atoms: _145  and  _147
REMARK   62  A    between atoms: _147  and  _148
REMARK   63  A    between atoms: _150  and  _152
REMARK   64  A    between atoms: _152  and  _153
REMARK   65  A    between atoms: _152  and  _155
REMARK   66  A    between atoms: _155  and  _156
REMARK   67  A    between atoms: _161  and  _163
REMARK   68  A    between atoms: _163  and  _164
REMARK   69  A    between atoms: _163  and  _166
REMARK   70  A    between atoms: _169  and  _171
REMARK   71  A    between atoms: _171  and  _172
REMARK   72  A    between atoms: _171  and  _174
REMARK   73  A    between atoms: _174  and  _175
REMARK   74  A    between atoms: _178  and  _180
REMARK   75  A    between atoms: _180  and  _181
REMARK   76  A    between atoms: _180  and  _183
REMARK   77  A    between atoms: _183  and  _184
REMARK   78  A    between atoms: _188  and  _189
REMARK   79  A    between atoms: _194  and  _196
REMARK   80  A    between atoms: _196  and  _197
REMARK   81  A    between atoms: _196  and  _199
REMARK   82  A    between atoms: _202  and  _204
REMARK   83  A    between atoms: _204  and  _205
REMARK   84  A    between atoms: _204  and  _207
REMARK   85  A    between atoms: _207  and  _208
REMARK   86  A    between atoms: _211  and  _213
REMARK   87  A    between atoms: _213  and  _214
REMARK   88  A    between atoms: _213  and  _216
REMARK   89  A    between atoms: _216  and  _217
REMARK   90  A    between atoms: _220  and  _222
REMARK   91  A    between atoms: _222  and  _223
REMARK   92  A    between atoms: _222  and  _225
REMARK   93  A    between atoms: _225  and  _226
REMARK   94  A    between atoms: _229  and  _231
REMARK   95  A    between atoms: _231  and  _232
REMARK   96  A    between atoms: _234  and  _236
REMARK   97  A    between atoms: _236  and  _237
REMARK   98  A    between atoms: _236  and  _239
REMARK   99  A    between atoms: _239  and  _240
REMARK  100  A    between atoms: _240  and  _241
REMARK  101  A    between atoms: _241  and  _242
REMARK  102  A    between atoms: _251  and  _253
REMARK  103  A    between atoms: _253  and  _254
REMARK  104  A    between atoms: _253  and  _256
REMARK  105  A    between atoms: _256  and  _257
REMARK  106  A    between atoms: _257  and  _258
REMARK  107  A    between atoms: _258  and  _259
REMARK  108  A    between atoms: _268  and  _270
REMARK  109  A    between atoms: _270  and  _271
REMARK  110  A    between atoms: _270  and  _273
REMARK  111  A    between atoms: _273  and  _274
REMARK  112  A    between atoms: _277  and  _279
REMARK  113  A    between atoms: _279  and  _280
REMARK  114  A    between atoms: _279  and  _282
REMARK  115  A    between atoms: _282  and  _283
REMARK  116  A    between atoms: _286  and  _288
REMARK  117  A    between atoms: _288  and  _289
REMARK  118  A    between atoms: _288  and  _291
REMARK  119  A    between atoms: _291  and  _292
REMARK  120  A    between atoms: _295  and  _297
REMARK  121  A    between atoms: _297  and  _298
REMARK  122  A    between atoms: _297  and  _300
REMARK  123  A    between atoms: _300  and  _301
REMARK  124  A    between atoms: _304  and  _306
REMARK  125  A    between atoms: _306  and  _307
REMARK  126  A    between atoms: _306  and  _309
REMARK  127  A    between atoms: _309  and  _310
REMARK  128  A    between atoms: _313  and  _315
REMARK  129  A    between atoms: _315  and  _316
REMARK  130  A    between atoms: _318  and  _320
REMARK  131  A    between atoms: _320  and  _321
REMARK  132  A    between atoms: _324  and  _326
REMARK  133  A    between atoms: _326  and  _327
REMARK  134  A    between atoms: _326  and  _329
REMARK  135  A    between atoms: _329  and  _330
REMARK  136  A    between atoms: _333  and  _335
REMARK  137  A    between atoms: _335  and  _336
REMARK  138  A    between atoms: _335  and  _338
REMARK  139  A    between atoms: _338  and  _339
REMARK  140  A    between atoms: _342  and  _344
REMARK  141  A    between atoms: _344  and  _345
REMARK  142  A    between atoms: _344  and  _347
REMARK  143  A    between atoms: _347  and  _348
REMARK  144  A    between atoms: _350  and  _352
REMARK  145  A    between atoms: _352  and  _353
REMARK  146  A    between atoms: _352  and  _355
REMARK  147  A    between atoms: _358  and  _360
REMARK  148  A    between atoms: _360  and  _361
REMARK  149  A    between atoms: _360  and  _363
REMARK  150  A    between atoms: _363  and  _364
REMARK  151  A    between atoms: _367  and  _369
REMARK  152  A    between atoms: _369  and  _370
REMARK  153  A    between atoms: _372  and  _374
REMARK  154  A    between atoms: _374  and  _375
REMARK  155  A    between atoms: _374  and  _377
REMARK  156  A    between atoms: _377  and  _378
REMARK  157  A    between atoms: _381  and  _383
REMARK  158  A    between atoms: _383  and  _384
REMARK  159  A    between atoms: _386  and  _388
REMARK  160  A    between atoms: _388  and  _389
REMARK  161  A    between atoms: _391  and  _393
REMARK  162  A    between atoms: _393  and  _394
REMARK  163  A    between atoms: _393  and  _396
REMARK  164  A    between atoms: _399  and  _401
REMARK  165  A    between atoms: _401  and  _402
REMARK  166  A    between atoms: _404  and  _406
REMARK  167  A    between atoms: _406  and  _407
REMARK  168  A    between atoms: _409  and  _411
REMARK  169  A    between atoms: _411  and  _412
REMARK  170  A    between atoms: _411  and  _414
REMARK  171  A    between atoms: _414  and  _415
REMARK  172  A    between atoms: _420  and  _422
REMARK  173  A    between atoms: _422  and  _423
REMARK  174  A    between atoms: _422  and  _425
REMARK  175  A    between atoms: _428  and  _430
REMARK  176  A    between atoms: _430  and  _431
REMARK  177  A    between atoms: _430  and  _433
REMARK  178  A    between atoms: _433  and  _434
REMARK  179  A    between atoms: _437  and  _439
REMARK  180  A    between atoms: _439  and  _440
REMARK  181  A    between atoms: _439  and  _442
REMARK  182  A    between atoms: _442  and  _443
REMARK  183  A    between atoms: _446  and  _448
REMARK  184  A    between atoms: _448  and  _449
REMARK  185  A    between atoms: _448  and  _451
REMARK  186  A    between atoms: _451  and  _452
REMARK  187  A    between atoms: _456  and  _457
REMARK  188  A    between atoms: _462  and  _464
REMARK  189  A    between atoms: _464  and  _465
REMARK  190  A    between atoms: _464  and  _467
REMARK  191  A    between atoms: _470  and  _472
REMARK  192  A    between atoms: _472  and  _473
REMARK  193  A    between atoms: _472  and  _475
REMARK  194  A    between atoms: _475  and  _476
REMARK  195  A    between atoms: _479  and  _481
REMARK  196  A    between atoms: _481  and  _482
REMARK  197  A    between atoms: _481  and  _484
REMARK  198  A    between atoms: _484  and  _485
REMARK  199  A    between atoms: _488  and  _490
REMARK  200  A    between atoms: _490  and  _491
REMARK  201  A    between atoms: _493  and  _495
REMARK  202  A    between atoms: _495  and  _496
REMARK  203  A    between atoms: _495  and  _498
REMARK  204  A    between atoms: _498  and  _499
REMARK  205  A    between atoms: _499  and  _500
REMARK  206  A    between atoms: _500  and  _501
REMARK                            x       y       z     vdW  Elec       q    Type
REMARK                         _______ _______ _______ _____ _____    ______ ____
ROOT
ATOM      1  CA  THR A   1      -0.536  26.542 -13.344  0.00  0.00    +0.160 C 
ENDROOT
BRANCH   1   2
ATOM      2  N   THR A   1      -1.221  27.671 -12.698  0.00  0.00    -0.237 NA
ATOM      3  H   THR A   1      -2.163  27.984 -13.008  0.00  0.00    +0.142 HD
ENDBRANCH   1   2
BRANCH   1   4
ATOM      4  CB  THR A   1      -1.327  25.236 -13.064  0.00  0.00    +0.134 C 
ATOM      5  CG2 THR A   1      -1.122  24.886 -11.612  0.00  0.00    +0.034 C 
BRANCH   4   6
ATOM      6  OG1 THR A   1      -2.727  25.420 -13.304  0.00  0.00    -0.383 OA
ATOM      7  HG1 THR A   1      -3.206  24.574 -13.118  0.00  0.00    +0.210 HD
ENDBRANCH   4   6
ENDBRANCH   1   4
BRANCH   1   8
ATOM      8  C   THR A   1      -0.696  26.617 -14.849  0.00  0.00    +0.227 C 
ATOM      9  O   THR A   1      -1.513  27.392 -15.373  0.00  0.00    -0.287 OA
ENDBRANCH   1   8
TORSDOF 4
REMARK  Name = ../refined-set-2016/2fmb/2fmb_pocket.pdb
REMARK  206 active torsions:
REMARK  status: ('A' for Active; 'I' for Inactive)
REMARK    1  A    between atoms: _1  and  _3
REMARK    2  A    between atoms: _3  and  _4
REMARK    3  A    between atoms: _3  and  _6
REMARK    4  A    between atoms: _6  and  _7
REMARK    5  A    between atoms: _7  and  _8
REMARK    6  A    between atoms: _8  and  _9
REMARK    7  A    between atoms: _18  and  _20
REMARK    8  A    between atoms: _20  and  _21
REMARK    9  A    between atoms: _20  and  _23
REMARK   10  A    between atoms: _23  and  _24
REMARK   11  A    between atoms: _27  and  _29
REMARK   12  A    between atoms: _29  and  _30
REMARK   13  A    between atoms: _29  and  _32
REMARK   14  A    between atoms: _32  and  _33
REMARK   15  A    between atoms: _36  and  _38
REMARK   16  A    between atoms: _38  and  _39
REMARK   17  A    between atoms: _38  and  _41
REMARK   18  A    between atoms: _41  and  _42
REMARK   19  A    between atoms: _45  and  _47
REMARK   20  A    between atoms: _47  and  _48
REMARK   21  A    between atoms: _47  and  _50
REMARK   22  A    between atoms: _50  and  _51
REMARK   23  A    between atoms: _54  and  _56
REMARK   24  A    between atoms: _56  and  _57
REMARK   25  A    between atoms: _59  and  _61
REMARK   26  A    between atoms: _61  and  _62
REMARK   27  A    between atoms: _65  and  _67
REMARK   28  A    between atoms: _67  and  _68
REMARK   29  A    between atoms: _67  and  _70
REMARK   30  A    between atoms: _70  and  _71
REMARK   31  A    between atoms: _74  and  _76
REMARK   32  A    between atoms: _76  and  _77
REMARK   33  A    between atoms: _76  and  _79
REMARK   34  A    between atoms: _79  and  _80
REMARK   35  A    between atoms: _83  and  _85
REMARK   36  A    between atoms: _85  and  _86
REMARK   37  A    between atoms: _85  and  _88
REMARK   38  A    between atoms: _88  and  _89
REMARK   39  A    between atoms: _91  and  _93
REMARK   40  A    between atoms: _93  and  _94
REMARK   41  A    between atoms: _93  and  _96
REMARK   42  A    between atoms: _99  and  _101
REMARK   43  A    between atoms: _101  and  _102
REMARK   44  A    between atoms: _101  and  _104
REMARK   45  A    between atoms: _104  and  _105
REMARK   46  A    between atoms: _108  and  _110
REMARK   47  A    between atoms: _110  and  _111
REMARK   48  A    between atoms: _113  and  _115
REMARK   49  A    between atoms: _115  and  _116
REMARK   50  A    between atoms: _115  and  _118
REMARK   51  A    between atoms: _118  and  _119
REMARK   52  A    between atoms: _122  and  _124
REMARK   53  A    between atoms: _124  and  _125
REMARK   54  A    between atoms: _127  and  _129
REMARK   55  A    between atoms: _129  and  _130
REMARK   56  A    between atoms: _132  and  _134
REMARK   57  A    between atoms: _134  and  _135
REMARK   58  A    between atoms: _134  and  _137
REMARK   59  A    between atoms: _140  and  _142
REMARK   60  A    between atoms: _142  and  _143
REMARK   61  A    between atoms: _145  and  _147
REMARK   62  A    between atoms: _147  and  _148
REMARK   63  A    between atoms: _150  and  _152
REMARK   64  A    between atoms: _152  and  _153
REMARK   65  A    between atoms: _152  and  _155
REMARK   66  A    between atoms: _155  and  _156
REMARK   67  A    between atoms: _161  and  _163
REMARK   68  A    between atoms: _163  and  _164
REMARK   69  A    between atoms: _163  and  _166
REMARK   70  A    between atoms: _169  and  _171
REMARK   71  A    between atoms: _171  and  _172
REMARK   72  A    between atoms: _171  and  _174
REMARK   73  A    between atoms: _174  and  _175
REMARK   74  A    between atoms: _178  and  _180
REMARK   75  A    between atoms: _180  and  _181
REMARK   76  A    between atoms: _180  and  _183
REMARK   77  A    between atoms: _183  and  _184
REMARK   78  A    between atoms: _188  and  _189
REMARK   79  A    between atoms: _194  and  _196
REMARK   80  A    between atoms: _196  and  _197
REMARK   81  A    between atoms: _196  and  _199
REMARK   82  A    between atoms: _202  and  _204
REMARK   83  A    between atoms: _204  and  _205
REMARK   84  A    between atoms: _204  and  _207
REMARK   85  A    between atoms: _207  and  _208
REMARK   86  A    between atoms: _211  and  _213
REMARK   87  A    between atoms: _213  and  _214
REMARK   88  A    between atoms: _213  and  _216
REMARK   89  A    between atoms: _216  and  _217
REMARK   90  A    between atoms: _220  and  _222
REMARK   91  A    between atoms: _222  and  _223
REMARK   92  A    between atoms: _222  and  _225
REMARK   93  A    between atoms: _225  and  _226
REMARK   94  A    between atoms: _229  and  _231
REMARK   95  A    between atoms: _231  and  _232
REMARK   96  A    between atoms: _234  and  _236
REMARK   97  A    between atoms: _236  and  _237
REMARK   98  A    between atoms: _236  and  _239
REMARK   99  A    between atoms: _239  and  _240
REMARK  100  A    between atoms: _240  and  _241
REMARK  101  A    between atoms: _241  and  _242
REMARK  102  A    between atoms: _251  and  _253
REMARK  103  A    between atoms: _253  and  _254
REMARK  104  A    between atoms: _253  and  _256
REMARK  105  A    between atoms: _256  and  _257
REMARK  106  A    between atoms: _257  and  _258
REMARK  107  A    between atoms: _258  and  _259
REMARK  108  A    between atoms: _268  and  _270
REMARK  109  A    between atoms: _270  and  _271
REMARK  110  A    between atoms: _270  and  _273
REMARK  111  A    between atoms: _273  and  _274
REMARK  112  A    between atoms: _277  and  _279
REMARK  113  A    between atoms: _279  and  _280
REMARK  114  A    between atoms: _279  and  _282
REMARK  115  A    between atoms: _282  and  _283
REMARK  116  A    between atoms: _286  and  _288
REMARK  117  A    between atoms: _288  and  _289
REMARK  118  A    between atoms: _288  and  _291
REMARK  119  A    between atoms: _291  and  _292
REMARK  120  A    between atoms: _295  and  _297
REMARK  121  A    between atoms: _297  and  _298
REMARK  122  A    between atoms: _297  and  _300
REMARK  123  A    between atoms: _300  and  _301
REMARK  124  A    between atoms: _304  and  _306
REMARK  125  A    between atoms: _306  and  _307
REMARK  126  A    between atoms: _306  and  _309
REMARK  127  A    between atoms: _309  and  _310
REMARK  128  A    between atoms: _313  and  _315
REMARK  129  A    between atoms: _315  and  _316
REMARK  130  A    between atoms: _318  and  _320
REMARK  131  A    between atoms: _320  and  _321
REMARK  132  A    between atoms: _324  and  _326
REMARK  133  A    between atoms: _326  and  _327
REMARK  134  A    between atoms: _326  and  _329
REMARK  135  A    between atoms: _329  and  _330
REMARK  136  A    between atoms: _333  and  _335
REMARK  137  A    between atoms: _335  and  _336
REMARK  138  A    between atoms: _335  and  _338
REMARK  139  A    between atoms: _338  and  _339
REMARK  140  A    between atoms: _342  and  _344
REMARK  141  A    between atoms: _344  and  _345
REMARK  142  A    between atoms: _344  and  _347
REMARK  143  A    between atoms: _347  and  _348
REMARK  144  A    between atoms: _350  and  _352
REMARK  145  A    between atoms: _352  and  _353
REMARK  146  A    between atoms: _352  and  _355
REMARK  147  A    between atoms: _358  and  _360
REMARK  148  A    between atoms: _360  and  _361
REMARK  149  A    between atoms: _360  and  _363
REMARK  150  A    between atoms: _363  and  _364
REMARK  151  A    between atoms: _367  and  _369
REMARK  152  A    between atoms: _369  and  _370
REMARK  153  A    between atoms: _372  and  _374
REMARK  154  A    between atoms: _374  and  _375
REMARK  155  A    between atoms: _374  and  _377
REMARK  156  A    between atoms: _377  and  _378
REMARK  157  A    between atoms: _381  and  _383
REMARK  158  A    between atoms: _383  and  _384
REMARK  159  A    between atoms: _386  and  _388
REMARK  160  A    between atoms: _388  and  _389
REMARK  161  A    between atoms: _391  and  _393
REMARK  162  A    between atoms: _393  and  _394
REMARK  163  A    between atoms: _393  and  _396
REMARK  164  A    between atoms: _399  and  _401
REMARK  165  A    between atoms: _401  and  _402
REMARK  166  A    between atoms: _404  and  _406
REMARK  167  A    between atoms: _406  and  _407
REMARK  168  A    between atoms: _409  and  _411
REMARK  169  A    between atoms: _411  and  _412
REMARK  170  A    between atoms: _411  and  _414
REMARK  171  A    between atoms: _414  and  _415
REMARK  172  A    between atoms: _420  and  _422
REMARK  173  A    between atoms: _422  and  _423
REMARK  174  A    between atoms: _422  and  _425
REMARK  175  A    between atoms: _428  and  _430
REMARK  176  A    between atoms: _430  and  _431
REMARK  177  A    between atoms: _430  and  _433
REMARK  178  A    between atoms: _433  and  _434
REMARK  179  A    between atoms: _437  and  _439
REMARK  180  A    between atoms: _439  and  _440
REMARK  181  A    between atoms: _439  and  _442
REMARK  182  A    between atoms: _442  and  _443
REMARK  183  A    between atoms: _446  and  _448
REMARK  184  A    between atoms: _448  and  _449
REMARK  185  A    between atoms: _448  and  _451
REMARK  186  A    between atoms: _451  and  _452
REMARK  187  A    between atoms: _456  and  _457
REMARK  188  A    between atoms: _462  and  _464
REMARK  189  A    between atoms: _464  and  _465
REMARK  190  A    between atoms: _464  and  _467
REMARK  191  A    between atoms: _470  and  _472
REMARK  192  A    between atoms: _472  and  _473
REMARK  193  A    between atoms: _472  and  _475
REMARK  194  A    between atoms: _475  and  _476
REMARK  195  A    between atoms: _479  and  _481
REMARK  196  A    between atoms: _481  and  _482
REMARK  197  A    between atoms: _481  and  _484
REMARK  198  A    between atoms: _484  and  _485
REMARK  199  A    between atoms: _488  and  _490
REMARK  200  A    between atoms: _490  and  _491
REMARK  201  A    between atoms: _493  and  _495
REMARK  202  A    between atoms: _495  and  _496
REMARK  203  A    between atoms: _495  and  _498
REMARK  204  A    between atoms: _498  and  _499
REMARK  205  A    between atoms: _499  and  _500
REMARK  206  A    between atoms: _500  and  _501
REMARK                            x       y       z     vdW  Elec       q    Type
REMARK                         _______ _______ _______ _____ _____    ______ ____
ROOT
ATOM      1  CA  LEU A   1       0.488  20.666 -14.558  0.00  0.00    +0.133 C 
ENDROOT
BRANCH   1   2
ATOM      2  N   LEU A   1       0.432  19.225 -14.818  0.00  0.00    -0.239 NA
ATOM      3  H   LEU A   1       0.118  18.567 -14.076  0.00  0.00    +0.142 HD
ENDBRANCH   1   2
BRANCH   1   4
ATOM      4  C   LEU A   1       1.921  21.052 -14.219  0.00  0.00    +0.224 C 
ATOM      5  O   LEU A   1       2.841  20.277 -13.865  0.00  0.00    -0.287 OA
ENDBRANCH   1   4
BRANCH   1   6
ATOM      6  CB  LEU A   1      -0.328  20.990 -13.292  0.00  0.00    +0.025 C 
BRANCH   6   7
ATOM      7  CG  LEU A   1      -1.793  20.546 -13.440  0.00  0.00    +0.002 C 
ATOM      8  CD2 LEU A   1      -2.488  20.919 -12.133  0.00  0.00    +0.000 C 
ATOM      9  CD1 LEU A   1      -2.464  21.097 -14.692  0.00  0.00    +0.000 C 
ENDBRANCH   6   7
ENDBRANCH   1   6
TORSDOF 4
REMARK  Name = ../refined-set-2016/2fmb/2fmb_pocket.pdb
REMARK  206 active torsions:
REMARK  status: ('A' for Active; 'I' for Inactive)
REMARK    1  A    between atoms: _1  and  _3
REMARK    2  A    between atoms: _3  and  _4
REMARK    3  A    between atoms: _3  and  _6
REMARK    4  A    between atoms: _6  and  _7
REMARK    5  A    between atoms: _7  and  _8
REMARK    6  A    between atoms: _8  and  _9
REMARK    7  A    between atoms: _18  and  _20
REMARK    8  A    between atoms: _20  and  _21
REMARK    9  A    between atoms: _20  and  _23
REMARK   10  A    between atoms: _23  and  _24
REMARK   11  A    between atoms: _27  and  _29
REMARK   12  A    between atoms: _29  and  _30
REMARK   13  A    between atoms: _29  and  _32
REMARK   14  A    between atoms: _32  and  _33
REMARK   15  A    between atoms: _36  and  _38
REMARK   16  A    between atoms: _38  and  _39
REMARK   17  A    between atoms: _38  and  _41
REMARK   18  A    between atoms: _41  and  _42
REMARK   19  A    between atoms: _45  and  _47
REMARK   20  A    between atoms: _47  and  _48
REMARK   21  A    between atoms: _47  and  _50
REMARK   22  A    between atoms: _50  and  _51
REMARK   23  A    between atoms: _54  and  _56
REMARK   24  A    between atoms: _56  and  _57
REMARK   25  A    between atoms: _59  and  _61
REMARK   26  A    between atoms: _61  and  _62
REMARK   27  A    between atoms: _65  and  _67
REMARK   28  A    between atoms: _67  and  _68
REMARK   29  A    between atoms: _67  and  _70
REMARK   30  A    between atoms: _70  and  _71
REMARK   31  A    between atoms: _74  and  _76
REMARK   32  A    between atoms: _76  and  _77
REMARK   33  A    between atoms: _76  and  _79
REMARK   34  A    between atoms: _79  and  _80
REMARK   35  A    between atoms: _83  and  _85
REMARK   36  A    between atoms: _85  and  _86
REMARK   37  A    between atoms: _85  and  _88
REMARK   38  A    between atoms: _88  and  _89
REMARK   39  A    between atoms: _91  and  _93
REMARK   40  A    between atoms: _93  and  _94
REMARK   41  A    between atoms: _93  and  _96
REMARK   42  A    between atoms: _99  and  _101
REMARK   43  A    between atoms: _101  and  _102
REMARK   44  A    between atoms: _101  and  _104
REMARK   45  A    between atoms: _104  and  _105
REMARK   46  A    between atoms: _108  and  _110
REMARK   47  A    between atoms: _110  and  _111
REMARK   48  A    between atoms: _113  and  _115
REMARK   49  A    between atoms: _115  and  _116
REMARK   50  A    between atoms: _115  and  _118
REMARK   51  A    between atoms: _118  and  _119
REMARK   52  A    between atoms: _122  and  _124
REMARK   53  A    between atoms: _124  and  _125
REMARK   54  A    between atoms: _127  and  _129
REMARK   55  A    between atoms: _129  and  _130
REMARK   56  A    between atoms: _132  and  _134
REMARK   57  A    between atoms: _134  and  _135
REMARK   58  A    between atoms: _134  and  _137
REMARK   59  A    between atoms: _140  and  _142
REMARK   60  A    between atoms: _142  and  _143
REMARK   61  A    between atoms: _145  and  _147
REMARK   62  A    between atoms: _147  and  _148
REMARK   63  A    between atoms: _150  and  _152
REMARK   64  A    between atoms: _152  and  _153
REMARK   65  A    between atoms: _152  and  _155
REMARK   66  A    between atoms: _155  and  _156
REMARK   67  A    between atoms: _161  and  _163
REMARK   68  A    between atoms: _163  and  _164
REMARK   69  A    between atoms: _163  and  _166
REMARK   70  A    between atoms: _169  and  _171
REMARK   71  A    between atoms: _171  and  _172
REMARK   72  A    between atoms: _171  and  _174
REMARK   73  A    between atoms: _174  and  _175
REMARK   74  A    between atoms: _178  and  _180
REMARK   75  A    between atoms: _180  and  _181
REMARK   76  A    between atoms: _180  and  _183
REMARK   77  A    between atoms: _183  and  _184
REMARK   78  A    between atoms: _188  and  _189
REMARK   79  A    between atoms: _194  and  _196
REMARK   80  A    between atoms: _196  and  _197
REMARK   81  A    between atoms: _196  and  _199
REMARK   82  A    between atoms: _202  and  _204
REMARK   83  A    between atoms: _204  and  _205
REMARK   84  A    between atoms: _204  and  _207
REMARK   85  A    between atoms: _207  and  _208
REMARK   86  A    between atoms: _211  and  _213
REMARK   87  A    between atoms: _213  and  _214
REMARK   88  A    between atoms: _213  and  _216
REMARK   89  A    between atoms: _216  and  _217
REMARK   90  A    between atoms: _220  and  _222
REMARK   91  A    between atoms: _222  and  _223
REMARK   92  A    between atoms: _222  and  _225
REMARK   93  A    between atoms: _225  and  _226
REMARK   94  A    between atoms: _229  and  _231
REMARK   95  A    between atoms: _231  and  _232
REMARK   96  A    between atoms: _234  and  _236
REMARK   97  A    between atoms: _236  and  _237
REMARK   98  A    between atoms: _236  and  _239
REMARK   99  A    between atoms: _239  and  _240
REMARK  100  A    between atoms: _240  and  _241
REMARK  101  A    between atoms: _241  and  _242
REMARK  102  A    between atoms: _251  and  _253
REMARK  103  A    between atoms: _253  and  _254
REMARK  104  A    between atoms: _253  and  _256
REMARK  105  A    between atoms: _256  and  _257
REMARK  106  A    between atoms: _257  and  _258
REMARK  107  A    between atoms: _258  and  _259
REMARK  108  A    between atoms: _268  and  _270
REMARK  109  A    between atoms: _270  and  _271
REMARK  110  A    between atoms: _270  and  _273
REMARK  111  A    between atoms: _273  and  _274
REMARK  112  A    between atoms: _277  and  _279
REMARK  113  A    between atoms: _279  and  _280
REMARK  114  A    between atoms: _279  and  _282
REMARK  115  A    between atoms: _282  and  _283
REMARK  116  A    between atoms: _286  and  _288
REMARK  117  A    between atoms: _288  and  _289
REMARK  118  A    between atoms: _288  and  _291
REMARK  119  A    between atoms: _291  and  _292
REMARK  120  A    between atoms: _295  and  _297
REMARK  121  A    between atoms: _297  and  _298
REMARK  122  A    between atoms: _297  and  _300
REMARK  123  A    between atoms: _300  and  _301
REMARK  124  A    between atoms: _304  and  _306
REMARK  125  A    between atoms: _306  and  _307
REMARK  126  A    between atoms: _306  and  _309
REMARK  127  A    between atoms: _309  and  _310
REMARK  128  A    between atoms: _313  and  _315
REMARK  129  A    between atoms: _315  and  _316
REMARK  130  A    between atoms: _318  and  _320
REMARK  131  A    between atoms: _320  and  _321
REMARK  132  A    between atoms: _324  and  _326
REMARK  133  A    between atoms: _326  and  _327
REMARK  134  A    between atoms: _326  and  _329
REMARK  135  A    between atoms: _329  and  _330
REMARK  136  A    between atoms: _333  and  _335
REMARK  137  A    between atoms: _335  and  _336
REMARK  138  A    between atoms: _335  and  _338
REMARK  139  A    between atoms: _338  and  _339
REMARK  140  A    between atoms: _342  and  _344
REMARK  141  A    between atoms: _344  and  _345
REMARK  142  A    between atoms: _344  and  _347
REMARK  143  A    between atoms: _347  and  _348
REMARK  144  A    between atoms: _350  and  _352
REMARK  145  A    between atoms: _352  and  _353
REMARK  146  A    between atoms: _352  and  _355
REMARK  147  A    between atoms: _358  and  _360
REMARK  148  A    between atoms: _360  and  _361
REMARK  149  A    between atoms: _360  and  _363
REMARK  150  A    between atoms: _363  and  _364
REMARK  151  A    between atoms: _367  and  _369
REMARK  152  A    between atoms: _369  and  _370
REMARK  153  A    between atoms: _372  and  _374
REMARK  154  A    between atoms: _374  and  _375
REMARK  155  A    between atoms: _374  and  _377
REMARK  156  A    between atoms: _377  and  _378
REMARK  157  A    between atoms: _381  and  _383
REMARK  158  A    between atoms: _383  and  _384
REMARK  159  A    between atoms: _386  and  _388
REMARK  160  A    between atoms: _388  and  _389
REMARK  161  A    between atoms: _391  and  _393
REMARK  162  A    between atoms: _393  and  _394
REMARK  163  A    between atoms: _393  and  _396
REMARK  164  A    between atoms: _399  and  _401
REMARK  165  A    between atoms: _401  and  _402
REMARK  166  A    between atoms: _404  and  _406
REMARK  167  A    between atoms: _406  and  _407
REMARK  168  A    between atoms: _409  and  _411
REMARK  169  A    between atoms: _411  and  _412
REMARK  170  A    between atoms: _411  and  _414
REMARK  171  A    between atoms: _414  and  _415
REMARK  172  A    between atoms: _420  and  _422
REMARK  173  A    between atoms: _422  and  _423
REMARK  174  A    between atoms: _422  and  _425
REMARK  175  A    between atoms: _428  and  _430
REMARK  176  A    between atoms: _430  and  _431
REMARK  177  A    between atoms: _430  and  _433
REMARK  178  A    between atoms: _433  and  _434
REMARK  179  A    between atoms: _437  and  _439
REMARK  180  A    between atoms: _439  and  _440
REMARK  181  A    between atoms: _439  and  _442
REMARK  182  A    between atoms: _442  and  _443
REMARK  183  A    between atoms: _446  and  _448
REMARK  184  A    between atoms: _448  and  _449
REMARK  185  A    between atoms: _448  and  _451
REMARK  186  A    between atoms: _451  and  _452
REMARK  187  A    between atoms: _456  and  _457
REMARK  188  A    between atoms: _462  and  _464
REMARK  189  A    between atoms: _464  and  _465
REMARK  190  A    between atoms: _464  and  _467
REMARK  191  A    between atoms: _470  and  _472
REMARK  192  A    between atoms: _472  and  _473
REMARK  193  A    between atoms: _472  and  _475
REMARK  194  A    between atoms: _475  and  _476
REMARK  195  A    between atoms: _479  and  _481
REMARK  196  A    between atoms: _481  and  _482
REMARK  197  A    between atoms: _481  and  _484
REMARK  198  A    between atoms: _484  and  _485
REMARK  199  A    between atoms: _488  and  _490
REMARK  200  A    between atoms: _490  and  _491
REMARK  201  A    between atoms: _493  and  _495
REMARK  202  A    between atoms: _495  and  _496
REMARK  203  A    between atoms: _495  and  _498
REMARK  204  A    between atoms: _498  and  _499
REMARK  205  A    between atoms: _499  and  _500
REMARK  206  A    between atoms: _500  and  _501
REMARK                            x       y       z     vdW  Elec       q    Type
REMARK                         _______ _______ _______ _____ _____    ______ ____
ROOT
ATOM      1  CA  VAL A   3       8.995  19.513  -5.416  0.00  0.00    +0.149 C 
ENDROOT
BRANCH   1   4
ATOM      2  C   PRO A   2       9.372  21.756  -4.509  0.00  0.00    +0.241 C 
ATOM      3  O   PRO A   2      10.566  21.642  -4.408  0.00  0.00    -0.273 OA
ATOM      4  N   VAL A   3       8.526  20.818  -4.944  0.00  0.00    -0.297 N 
ATOM      5  H   VAL A   3       7.506  21.020  -4.948  0.00  0.00    +0.150 HD
BRANCH   2  11
ATOM      6  C   ILE A   1       7.376  23.910  -5.726  0.00  0.00    +0.241 C 
ATOM      7  N   PRO A   2       7.539  23.533  -4.462  0.00  0.00    -0.272 N 
ATOM      8  CD  PRO A   2       6.466  23.621  -3.456  0.00  0.00    +0.094 C 
ATOM      9  CG  PRO A   2       7.273  23.450  -2.207  0.00  0.00    +0.024 C 
ATOM     10  CB  PRO A   2       8.598  22.852  -2.485  0.00  0.00    +0.031 C 
ATOM     11  CA  PRO A   2       8.823  23.062  -3.988  0.00  0.00    +0.152 C 
ATOM     12  O   ILE A   1       8.279  23.793  -6.531  0.00  0.00    -0.273 OA
BRANCH   6  13
ATOM     13  CA  ILE A   1       6.022  24.487  -6.112  0.00  0.00    +0.145 C 
BRANCH  13  14
ATOM     14  N   ILE A   1       6.237  25.196  -7.372  0.00  0.00    -0.238 NA
ATOM     15  H   ILE A   1       6.532  24.662  -8.214  0.00  0.00    +0.142 HD
ENDBRANCH  13  14
BRANCH  13  16
ATOM     16  CB  ILE A   1       4.874  23.491  -6.156  0.00  0.00    +0.025 C 
ATOM     17  CG2 ILE A   1       3.588  24.229  -6.584  0.00  0.00    +0.002 C 
BRANCH  16  18
ATOM     18  CG1 ILE A   1       5.183  22.366  -7.152  0.00  0.00    +0.002 C 
ATOM     19  CD1 ILE A   1       4.281  21.152  -6.963  0.00  0.00    +0.000 C 
ENDBRANCH  16  18
ENDBRANCH  13  16
ENDBRANCH   6  13
ENDBRANCH   2  11
ENDBRANCH   1   4
BRANCH   1  20
ATOM     20  C   VAL A   3       8.037  18.964  -6.474  0.00  0.00    +0.241 C 
ATOM     21  O   VAL A   3       6.902  19.441  -6.628  0.00  0.00    -0.273 OA
ATOM     22  N   THR A   4       8.463  18.029  -7.305  0.00  0.00    -0.295 N 
ATOM     23  H   THR A   4       9.430  17.656  -7.221  0.00  0.00    +0.150 HD
BRANCH  22  24
ATOM     24  CA  THR A   4       7.563  17.518  -8.349  0.00  0.00    +0.176 C 
BRANCH  24  25
ATOM     25  C   THR A   4       6.799  16.382  -7.640  0.00  0.00    +0.243 C 
ATOM     26  O   THR A   4       7.441  15.580  -6.933  0.00  0.00    -0.273 OA
ATOM     27  N   ILE A   5       5.489  16.476  -7.881  0.00  0.00    -0.298 N 
ATOM     28  H   ILE A   5       5.091  17.202  -8.511  0.00  0.00    +0.150 HD
BRANCH  27  29
ATOM     29  CA  ILE A   5       4.630  15.466  -7.183  0.00  0.00    +0.137 C 
BRANCH  29  30
ATOM     30  C   ILE A   5       3.835  14.657  -8.169  0.00  0.00    +0.227 C 
ATOM     31  O   ILE A   5       3.278  15.155  -9.155  0.00  0.00    -0.286 OA
ENDBRANCH  29  30
BRANCH  29  32
ATOM     32  CB  ILE A   5       3.642  16.368  -6.371  0.00  0.00    +0.026 C 
ATOM     33  CG2 ILE A   5       2.551  15.532  -5.736  0.00  0.00    +0.002 C 
BRANCH  32  34
ATOM     34  CG1 ILE A   5       4.461  17.000  -5.222  0.00  0.00    +0.002 C 
ATOM     35  CD1 ILE A   5       3.586  17.879  -4.369  0.00  0.00    +0.000 C 
ENDBRANCH  32  34
ENDBRANCH  29  32
ENDBRANCH  27  29
ENDBRANCH  24  25
BRANCH  24  36
ATOM     36  CB  THR A   4       8.337  16.903  -9.505  0.00  0.00    +0.137 C 
ATOM     37  CG2 THR A   4       7.484  16.047 -10.434  0.00  0.00    +0.034 C 
BRANCH  36  38
ATOM     38  OG1 THR A   4       8.780  18.072 -10.254  0.00  0.00    -0.382 OA
ATOM     39  HG1 THR A   4       9.303  17.779 -11.042  0.00  0.00    +0.210 HD
ENDBRANCH  36  38
ENDBRANCH  24  36
ENDBRANCH  22  24
ENDBRANCH   1  20
BRANCH   1  40
ATOM     40  CB  VAL A   3       9.062  18.624  -4.160  0.00  0.00    +0.027 C 
ATOM     41  CG2 VAL A   3       7.637  18.389  -3.657  0.00  0.00    +0.002 C 
ATOM     42  CG1 VAL A   3       9.775  17.316  -4.376  0.00  0.00    +0.002 C 
ENDBRANCH   1  40
TORSDOF 16
REMARK  Name = ../refined-set-2016/2fmb/2fmb_pocket.pdb
REMARK  206 active torsions:
REMARK  status: ('A' for Active; 'I' for Inactive)
REMARK    1  A    between atoms: _1  and  _3
REMARK    2  A    between atoms: _3  and  _4
REMARK    3  A    between atoms: _3  and  _6
REMARK    4  A    between atoms: _6  and  _7
REMARK    5  A    between atoms: _7  and  _8
REMARK    6  A    between atoms: _8  and  _9
REMARK    7  A    between atoms: _18  and  _20
REMARK    8  A    between atoms: _20  and  _21
REMARK    9  A    between atoms: _20  and  _23
REMARK   10  A    between atoms: _23  and  _24
REMARK   11  A    between atoms: _27  and  _29
REMARK   12  A    between atoms: _29  and  _30
REMARK   13  A    between atoms: _29  and  _32
REMARK   14  A    between atoms: _32  and  _33
REMARK   15  A    between atoms: _36  and  _38
REMARK   16  A    between atoms: _38  and  _39
REMARK   17  A    between atoms: _38  and  _41
REMARK   18  A    between atoms: _41  and  _42
REMARK   19  A    between atoms: _45  and  _47
REMARK   20  A    between atoms: _47  and  _48
REMARK   21  A    between atoms: _47  and  _50
REMARK   22  A    between atoms: _50  and  _51
REMARK   23  A    between atoms: _54  and  _56
REMARK   24  A    between atoms: _56  and  _57
REMARK   25  A    between atoms: _59  and  _61
REMARK   26  A    between atoms: _61  and  _62
REMARK   27  A    between atoms: _65  and  _67
REMARK   28  A    between atoms: _67  and  _68
REMARK   29  A    between atoms: _67  and  _70
REMARK   30  A    between atoms: _70  and  _71
REMARK   31  A    between atoms: _74  and  _76
REMARK   32  A    between atoms: _76  and  _77
REMARK   33  A    between atoms: _76  and  _79
REMARK   34  A    between atoms: _79  and  _80
REMARK   35  A    between atoms: _83  and  _85
REMARK   36  A    between atoms: _85  and  _86
REMARK   37  A    between atoms: _85  and  _88
REMARK   38  A    between atoms: _88  and  _89
REMARK   39  A    between atoms: _91  and  _93
REMARK   40  A    between atoms: _93  and  _94
REMARK   41  A    between atoms: _93  and  _96
REMARK   42  A    between atoms: _99  and  _101
REMARK   43  A    between atoms: _101  and  _102
REMARK   44  A    between atoms: _101  and  _104
REMARK   45  A    between atoms: _104  and  _105
REMARK   46  A    between atoms: _108  and  _110
REMARK   47  A    between atoms: _110  and  _111
REMARK   48  A    between atoms: _113  and  _115
REMARK   49  A    between atoms: _115  and  _116
REMARK   50  A    between atoms: _115  and  _118
REMARK   51  A    between atoms: _118  and  _119
REMARK   52  A    between atoms: _122  and  _124
REMARK   53  A    between atoms: _124  and  _125
REMARK   54  A    between atoms: _127  and  _129
REMARK   55  A    between atoms: _129  and  _130
REMARK   56  A    between atoms: _132  and  _134
REMARK   57  A    between atoms: _134  and  _135
REMARK   58  A    between atoms: _134  and  _137
REMARK   59  A    between atoms: _140  and  _142
REMARK   60  A    between atoms: _142  and  _143
REMARK   61  A    between atoms: _145  and  _147
REMARK   62  A    between atoms: _147  and  _148
REMARK   63  A    between atoms: _150  and  _152
REMARK   64  A    between atoms: _152  and  _153
REMARK   65  A    between atoms: _152  and  _155
REMARK   66  A    between atoms: _155  and  _156
REMARK   67  A    between atoms: _161  and  _163
REMARK   68  A    between atoms: _163  and  _164
REMARK   69  A    between atoms: _163  and  _166
REMARK   70  A    between atoms: _169  and  _171
REMARK   71  A    between atoms: _171  and  _172
REMARK   72  A    between atoms: _171  and  _174
REMARK   73  A    between atoms: _174  and  _175
REMARK   74  A    between atoms: _178  and  _180
REMARK   75  A    between atoms: _180  and  _181
REMARK   76  A    between atoms: _180  and  _183
REMARK   77  A    between atoms: _183  and  _184
REMARK   78  A    between atoms: _188  and  _189
REMARK   79  A    between atoms: _194  and  _196
REMARK   80  A    between atoms: _196  and  _197
REMARK   81  A    between atoms: _196  and  _199
REMARK   82  A    between atoms: _202  and  _204
REMARK   83  A    between atoms: _204  and  _205
REMARK   84  A    between atoms: _204  and  _207
REMARK   85  A    between atoms: _207  and  _208
REMARK   86  A    between atoms: _211  and  _213
REMARK   87  A    between atoms: _213  and  _214
REMARK   88  A    between atoms: _213  and  _216
REMARK   89  A    between atoms: _216  and  _217
REMARK   90  A    between atoms: _220  and  _222
REMARK   91  A    between atoms: _222  and  _223
REMARK   92  A    between atoms: _222  and  _225
REMARK   93  A    between atoms: _225  and  _226
REMARK   94  A    between atoms: _229  and  _231
REMARK   95  A    between atoms: _231  and  _232
REMARK   96  A    between atoms: _234  and  _236
REMARK   97  A    between atoms: _236  and  _237
REMARK   98  A    between atoms: _236  and  _239
REMARK   99  A    between atoms: _239  and  _240
REMARK  100  A    between atoms: _240  and  _241
REMARK  101  A    between atoms: _241  and  _242
REMARK  102  A    between atoms: _251  and  _253
REMARK  103  A    between atoms: _253  and  _254
REMARK  104  A    between atoms: _253  and  _256
REMARK  105  A    between atoms: _256  and  _257
REMARK  106  A    between atoms: _257  and  _258
REMARK  107  A    between atoms: _258  and  _259
REMARK  108  A    between atoms: _268  and  _270
REMARK  109  A    between atoms: _270  and  _271
REMARK  110  A    between atoms: _270  and  _273
REMARK  111  A    between atoms: _273  and  _274
REMARK  112  A    between atoms: _277  and  _279
REMARK  113  A    between atoms: _279  and  _280
REMARK  114  A    between atoms: _279  and  _282
REMARK  115  A    between atoms: _282  and  _283
REMARK  116  A    between atoms: _286  and  _288
REMARK  117  A    between atoms: _288  and  _289
REMARK  118  A    between atoms: _288  and  _291
REMARK  119  A    between atoms: _291  and  _292
REMARK  120  A    between atoms: _295  and  _297
REMARK  121  A    between atoms: _297  and  _298
REMARK  122  A    between atoms: _297  and  _300
REMARK  123  A    between atoms: _300  and  _301
REMARK  124  A    between atoms: _304  and  _306
REMARK  125  A    between atoms: _306  and  _307
REMARK  126  A    between atoms: _306  and  _309
REMARK  127  A    between atoms: _309  and  _310
REMARK  128  A    between atoms: _313  and  _315
REMARK  129  A    between atoms: _315  and  _316
REMARK  130  A    between atoms: _318  and  _320
REMARK  131  A    between atoms: _320  and  _321
REMARK  132  A    between atoms: _324  and  _326
REMARK  133  A    between atoms: _326  and  _327
REMARK  134  A    between atoms: _326  and  _329
REMARK  135  A    between atoms: _329  and  _330
REMARK  136  A    between atoms: _333  and  _335
REMARK  137  A    between atoms: _335  and  _336
REMARK  138  A    between atoms: _335  and  _338
REMARK  139  A    between atoms: _338  and  _339
REMARK  140  A    between atoms: _342  and  _344
REMARK  141  A    between atoms: _344  and  _345
REMARK  142  A    between atoms: _344  and  _347
REMARK  143  A    between atoms: _347  and  _348
REMARK  144  A    between atoms: _350  and  _352
REMARK  145  A    between atoms: _352  and  _353
REMARK  146  A    between atoms: _352  and  _355
REMARK  147  A    between atoms: _358  and  _360
REMARK  148  A    between atoms: _360  and  _361
REMARK  149  A    between atoms: _360  and  _363
REMARK  150  A    between atoms: _363  and  _364
REMARK  151  A    between atoms: _367  and  _369
REMARK  152  A    between atoms: _369  and  _370
REMARK  153  A    between atoms: _372  and  _374
REMARK  154  A    between atoms: _374  and  _375
REMARK  155  A    between atoms: _374  and  _377
REMARK  156  A    between atoms: _377  and  _378
REMARK  157  A    between atoms: _381  and  _383
REMARK  158  A    between atoms: _383  and  _384
REMARK  159  A    between atoms: _386  and  _388
REMARK  160  A    between atoms: _388  and  _389
REMARK  161  A    between atoms: _391  and  _393
REMARK  162  A    between atoms: _393  and  _394
REMARK  163  A    between atoms: _393  and  _396
REMARK  164  A    between atoms: _399  and  _401
REMARK  165  A    between atoms: _401  and  _402
REMARK  166  A    between atoms: _404  and  _406
REMARK  167  A    between atoms: _406  and  _407
REMARK  168  A    between atoms: _409  and  _411
REMARK  169  A    between atoms: _411  and  _412
REMARK  170  A    between atoms: _411  and  _414
REMARK  171  A    between atoms: _414  and  _415
REMARK  172  A    between atoms: _420  and  _422
REMARK  173  A    between atoms: _422  and  _423
REMARK  174  A    between atoms: _422  and  _425
REMARK  175  A    between atoms: _428  and  _430
REMARK  176  A    between atoms: _430  and  _431
REMARK  177  A    between atoms: _430  and  _433
REMARK  178  A    between atoms: _433  and  _434
REMARK  179  A    between atoms: _437  and  _439
REMARK  180  A    between atoms: _439  and  _440
REMARK  181  A    between atoms: _439  and  _442
REMARK  182  A    between atoms: _442  and  _443
REMARK  183  A    between atoms: _446  and  _448
REMARK  184  A    between atoms: _448  and  _449
REMARK  185  A    between atoms: _448  and  _451
REMARK  186  A    between atoms: _451  and  _452
REMARK  187  A    between atoms: _456  and  _457
REMARK  188  A    between atoms: _462  and  _464
REMARK  189  A    between atoms: _464  and  _465
REMARK  190  A    between atoms: _464  and  _467
REMARK  191  A    between atoms: _470  and  _472
REMARK  192  A    between atoms: _472  and  _473
REMARK  193  A    between atoms: _472  and  _475
REMARK  194  A    between atoms: _475  and  _476
REMARK  195  A    between atoms: _479  and  _481
REMARK  196  A    between atoms: _481  and  _482
REMARK  197  A    between atoms: _481  and  _484
REMARK  198  A    between atoms: _484  and  _485
REMARK  199  A    between atoms: _488  and  _490
REMARK  200  A    between atoms: _490  and  _491
REMARK  201  A    between atoms: _493  and  _495
REMARK  202  A    between atoms: _495  and  _496
REMARK  203  A    between atoms: _495  and  _498
REMARK  204  A    between atoms: _498  and  _499
REMARK  205  A    between atoms: _499  and  _500
REMARK  206  A    between atoms: _500  and  _501
REMARK                            x       y       z     vdW  Elec       q    Type
REMARK                         _______ _______ _______ _____ _____    ______ ____
ROOT
ATOM      1  CB  ARG A   2      -4.929  10.443  -6.912  0.00  0.00    +0.031 C 
ENDROOT
BRANCH   1   2
ATOM      2  CA  ARG A   2      -3.606  10.244  -7.706  0.00  0.00    +0.137 C 
BRANCH   2   4
ATOM      3  C   GLY A   1      -1.478  11.414  -7.911  0.00  0.00    +0.240 C 
ATOM      4  N   ARG A   2      -2.738  11.384  -7.487  0.00  0.00    -0.298 N 
ATOM      5  H   ARG A   2      -3.115  12.210  -6.979  0.00  0.00    +0.150 HD
ATOM      6  O   GLY A   1      -1.045  10.587  -8.700  0.00  0.00    -0.274 OA
BRANCH   3   7
ATOM      7  CA  GLY A   1      -0.676  12.643  -7.480  0.00  0.00    +0.169 C 
BRANCH   7   8
ATOM      8  N   GLY A   1       0.573  12.733  -8.243  0.00  0.00    -0.236 NA
ATOM      9  H   GLY A   1       0.564  13.171  -9.186  0.00  0.00    +0.142 HD
ENDBRANCH   7   8
ENDBRANCH   3   7
ENDBRANCH   2   4
BRANCH   2  10
ATOM     10  C   ARG A   2      -3.843   9.855  -9.135  0.00  0.00    +0.227 C 
ATOM     11  O   ARG A   2      -4.077   8.653  -9.436  0.00  0.00    -0.286 OA
ENDBRANCH   2  10
ENDBRANCH   1   2
BRANCH   1  12
ATOM     12  CG  ARG A   2      -4.705  10.451  -5.383  0.00  0.00    +0.045 C 
BRANCH  12  13
ATOM     13  CD  ARG A   2      -6.099  10.389  -4.666  0.00  0.00    +0.174 C 
BRANCH  13  14
ATOM     14  NE  ARG A   2      -6.877  11.612  -4.896  0.00  0.00    -0.265 N 
ATOM     15  HE  ARG A   2      -6.652  12.435  -4.301  0.00  0.00    +0.259 HD
ATOM     16  CZ  ARG A   2      -7.837  11.760  -5.791  0.00  0.00    +0.342 C 
ATOM     17  NH2 ARG A   2      -8.456  12.924  -5.988  0.00  0.00    -0.292 N 
ATOM     18 HH21 ARG A   2      -8.188  13.757  -5.427  0.00  0.00    +0.255 HD
ATOM     19 HH22 ARG A   2      -9.207  12.999  -6.703  0.00  0.00    +0.255 HD
ATOM     20  NH1 ARG A   2      -8.272  10.785  -6.609  0.00  0.00    -0.292 N 
ATOM     21 HH11 ARG A   2      -7.846   9.837  -6.561  0.00  0.00    +0.255 HD
ATOM     22 HH12 ARG A   2      -9.034  10.979  -7.289  0.00  0.00    +0.255 HD
ENDBRANCH  13  14
ENDBRANCH  12  13
ENDBRANCH   1  12
TORSDOF 8
REMARK  Name = ../refined-set-2016/2fmb/2fmb_pocket.pdb
REMARK  206 active torsions:
REMARK  status: ('A' for Active; 'I' for Inactive)
REMARK    1  A    between atoms: _1  and  _3
REMARK    2  A    between atoms: _3  and  _4
REMARK    3  A    between atoms: _3  and  _6
REMARK    4  A    between atoms: _6  and  _7
REMARK    5  A    between atoms: _7  and  _8
REMARK    6  A    between atoms: _8  and  _9
REMARK    7  A    between atoms: _18  and  _20
REMARK    8  A    between atoms: _20  and  _21
REMARK    9  A    between atoms: _20  and  _23
REMARK   10  A    between atoms: _23  and  _24
REMARK   11  A    between atoms: _27  and  _29
REMARK   12  A    between atoms: _29  and  _30
REMARK   13  A    between atoms: _29  and  _32
REMARK   14  A    between atoms: _32  and  _33
REMARK   15  A    between atoms: _36  and  _38
REMARK   16  A    between atoms: _38  and  _39
REMARK   17  A    between atoms: _38  and  _41
REMARK   18  A    between atoms: _41  and  _42
REMARK   19  A    between atoms: _45  and  _47
REMARK   20  A    between atoms: _47  and  _48
REMARK   21  A    between atoms: _47  and  _50
REMARK   22  A    between atoms: _50  and  _51
REMARK   23  A    between atoms: _54  and  _56
REMARK   24  A    between atoms: _56  and  _57
REMARK   25  A    between atoms: _59  and  _61
REMARK   26  A    between atoms: _61  and  _62
REMARK   27  A    between atoms: _65  and  _67
REMARK   28  A    between atoms: _67  and  _68
REMARK   29  A    between atoms: _67  and  _70
REMARK   30  A    between atoms: _70  and  _71
REMARK   31  A    between atoms: _74  and  _76
REMARK   32  A    between atoms: _76  and  _77
REMARK   33  A    between atoms: _76  and  _79
REMARK   34  A    between atoms: _79  and  _80
REMARK   35  A    between atoms: _83  and  _85
REMARK   36  A    between atoms: _85  and  _86
REMARK   37  A    between atoms: _85  and  _88
REMARK   38  A    between atoms: _88  and  _89
REMARK   39  A    between atoms: _91  and  _93
REMARK   40  A    between atoms: _93  and  _94
REMARK   41  A    between atoms: _93  and  _96
REMARK   42  A    between atoms: _99  and  _101
REMARK   43  A    between atoms: _101  and  _102
REMARK   44  A    between atoms: _101  and  _104
REMARK   45  A    between atoms: _104  and  _105
REMARK   46  A    between atoms: _108  and  _110
REMARK   47  A    between atoms: _110  and  _111
REMARK   48  A    between atoms: _113  and  _115
REMARK   49  A    between atoms: _115  and  _116
REMARK   50  A    between atoms: _115  and  _118
REMARK   51  A    between atoms: _118  and  _119
REMARK   52  A    between atoms: _122  and  _124
REMARK   53  A    between atoms: _124  and  _125
REMARK   54  A    between atoms: _127  and  _129
REMARK   55  A    between atoms: _129  and  _130
REMARK   56  A    between atoms: _132  and  _134
REMARK   57  A    between atoms: _134  and  _135
REMARK   58  A    between atoms: _134  and  _137
REMARK   59  A    between atoms: _140  and  _142
REMARK   60  A    between atoms: _142  and  _143
REMARK   61  A    between atoms: _145  and  _147
REMARK   62  A    between atoms: _147  and  _148
REMARK   63  A    between atoms: _150  and  _152
REMARK   64  A    between atoms: _152  and  _153
REMARK   65  A    between atoms: _152  and  _155
REMARK   66  A    between atoms: _155  and  _156
REMARK   67  A    between atoms: _161  and  _163
REMARK   68  A    between atoms: _163  and  _164
REMARK   69  A    between atoms: _163  and  _166
REMARK   70  A    between atoms: _169  and  _171
REMARK   71  A    between atoms: _171  and  _172
REMARK   72  A    between atoms: _171  and  _174
REMARK   73  A    between atoms: _174  and  _175
REMARK   74  A    between atoms: _178  and  _180
REMARK   75  A    between atoms: _180  and  _181
REMARK   76  A    between atoms: _180  and  _183
REMARK   77  A    between atoms: _183  and  _184
REMARK   78  A    between atoms: _188  and  _189
REMARK   79  A    between atoms: _194  and  _196
REMARK   80  A    between atoms: _196  and  _197
REMARK   81  A    between atoms: _196  and  _199
REMARK   82  A    between atoms: _202  and  _204
REMARK   83  A    between atoms: _204  and  _205
REMARK   84  A    between atoms: _204  and  _207
REMARK   85  A    between atoms: _207  and  _208
REMARK   86  A    between atoms: _211  and  _213
REMARK   87  A    between atoms: _213  and  _214
REMARK   88  A    between atoms: _213  and  _216
REMARK   89  A    between atoms: _216  and  _217
REMARK   90  A    between atoms: _220  and  _222
REMARK   91  A    between atoms: _222  and  _223
REMARK   92  A    between atoms: _222  and  _225
REMARK   93  A    between atoms: _225  and  _226
REMARK   94  A    between atoms: _229  and  _231
REMARK   95  A    between atoms: _231  and  _232
REMARK   96  A    between atoms: _234  and  _236
REMARK   97  A    between atoms: _236  and  _237
REMARK   98  A    between atoms: _236  and  _239
REMARK   99  A    between atoms: _239  and  _240
REMARK  100  A    between atoms: _240  and  _241
REMARK  101  A    between atoms: _241  and  _242
REMARK  102  A    between atoms: _251  and  _253
REMARK  103  A    between atoms: _253  and  _254
REMARK  104  A    between atoms: _253  and  _256
REMARK  105  A    between atoms: _256  and  _257
REMARK  106  A    between atoms: _257  and  _258
REMARK  107  A    between atoms: _258  and  _259
REMARK  108  A    between atoms: _268  and  _270
REMARK  109  A    between atoms: _270  and  _271
REMARK  110  A    between atoms: _270  and  _273
REMARK  111  A    between atoms: _273  and  _274
REMARK  112  A    between atoms: _277  and  _279
REMARK  113  A    between atoms: _279  and  _280
REMARK  114  A    between atoms: _279  and  _282
REMARK  115  A    between atoms: _282  and  _283
REMARK  116  A    between atoms: _286  and  _288
REMARK  117  A    between atoms: _288  and  _289
REMARK  118  A    between atoms: _288  and  _291
REMARK  119  A    between atoms: _291  and  _292
REMARK  120  A    between atoms: _295  and  _297
REMARK  121  A    between atoms: _297  and  _298
REMARK  122  A    between atoms: _297  and  _300
REMARK  123  A    between atoms: _300  and  _301
REMARK  124  A    between atoms: _304  and  _306
REMARK  125  A    between atoms: _306  and  _307
REMARK  126  A    between atoms: _306  and  _309
REMARK  127  A    between atoms: _309  and  _310
REMARK  128  A    between atoms: _313  and  _315
REMARK  129  A    between atoms: _315  and  _316
REMARK  130  A    between atoms: _318  and  _320
REMARK  131  A    between atoms: _320  and  _321
REMARK  132  A    between atoms: _324  and  _326
REMARK  133  A    between atoms: _326  and  _327
REMARK  134  A    between atoms: _326  and  _329
REMARK  135  A    between atoms: _329  and  _330
REMARK  136  A    between atoms: _333  and  _335
REMARK  137  A    between atoms: _335  and  _336
REMARK  138  A    between atoms: _335  and  _338
REMARK  139  A    between atoms: _338  and  _339
REMARK  140  A    between atoms: _342  and  _344
REMARK  141  A    between atoms: _344  and  _345
REMARK  142  A    between atoms: _344  and  _347
REMARK  143  A    between atoms: _347  and  _348
REMARK  144  A    between atoms: _350  and  _352
REMARK  145  A    between atoms: _352  and  _353
REMARK  146  A    between atoms: _352  and  _355
REMARK  147  A    between atoms: _358  and  _360
REMARK  148  A    between atoms: _360  and  _361
REMARK  149  A    between atoms: _360  and  _363
REMARK  150  A    between atoms: _363  and  _364
REMARK  151  A    between atoms: _367  and  _369
REMARK  152  A    between atoms: _369  and  _370
REMARK  153  A    between atoms: _372  and  _374
REMARK  154  A    between atoms: _374  and  _375
REMARK  155  A    between atoms: _374  and  _377
REMARK  156  A    between atoms: _377  and  _378
REMARK  157  A    between atoms: _381  and  _383
REMARK  158  A    between atoms: _383  and  _384
REMARK  159  A    between atoms: _386  and  _388
REMARK  160  A    between atoms: _388  and  _389
REMARK  161  A    between atoms: _391  and  _393
REMARK  162  A    between atoms: _393  and  _394
REMARK  163  A    between atoms: _393  and  _396
REMARK  164  A    between atoms: _399  and  _401
REMARK  165  A    between atoms: _401  and  _402
REMARK  166  A    between atoms: _404  and  _406
REMARK  167  A    between atoms: _406  and  _407
REMARK  168  A    between atoms: _409  and  _411
REMARK  169  A    between atoms: _411  and  _412
REMARK  170  A    between atoms: _411  and  _414
REMARK  171  A    between atoms: _414  and  _415
REMARK  172  A    between atoms: _420  and  _422
REMARK  173  A    between atoms: _422  and  _423
REMARK  174  A    between atoms: _422  and  _425
REMARK  175  A    between atoms: _428  and  _430
REMARK  176  A    between atoms: _430  and  _431
REMARK  177  A    between atoms: _430  and  _433
REMARK  178  A    between atoms: _433  and  _434
REMARK  179  A    between atoms: _437  and  _439
REMARK  180  A    between atoms: _439  and  _440
REMARK  181  A    between atoms: _439  and  _442
REMARK  182  A    between atoms: _442  and  _443
REMARK  183  A    between atoms: _446  and  _448
REMARK  184  A    between atoms: _448  and  _449
REMARK  185  A    between atoms: _448  and  _451
REMARK  186  A    between atoms: _451  and  _452
REMARK  187  A    between atoms: _456  and  _457
REMARK  188  A    between atoms: _462  and  _464
REMARK  189  A    between atoms: _464  and  _465
REMARK  190  A    between atoms: _464  and  _467
REMARK  191  A    between atoms: _470  and  _472
REMARK  192  A    between atoms: _472  and  _473
REMARK  193  A    between atoms: _472  and  _475
REMARK  194  A    between atoms: _475  and  _476
REMARK  195  A    between atoms: _479  and  _481
REMARK  196  A    between atoms: _481  and  _482
REMARK  197  A    between atoms: _481  and  _484
REMARK  198  A    between atoms: _484  and  _485
REMARK  199  A    between atoms: _488  and  _490
REMARK  200  A    between atoms: _490  and  _491
REMARK  201  A    between atoms: _493  and  _495
REMARK  202  A    between atoms: _495  and  _496
REMARK  203  A    between atoms: _495  and  _498
REMARK  204  A    between atoms: _498  and  _499
REMARK  205  A    between atoms: _499  and  _500
REMARK  206  A    between atoms: _500  and  _501
REMARK                            x       y       z     vdW  Elec       q    Type
REMARK                         _______ _______ _______ _____ _____    ______ ____
ROOT
ATOM      1  O   HOH     1      -0.079  22.162   0.039  0.00  0.00    +0.000 OA
ENDROOT
TORSDOF 0
REMARK  Name = ../refined-set-2016/2fmb/2fmb_pocket.pdb
REMARK  206 active torsions:
REMARK  status: ('A' for Active; 'I' for Inactive)
REMARK    1  A    between atoms: _1  and  _3
REMARK    2  A    between atoms: _3  and  _4
REMARK    3  A    between atoms: _3  and  _6
REMARK    4  A    between atoms: _6  and  _7
REMARK    5  A    between atoms: _7  and  _8
REMARK    6  A    between atoms: _8  and  _9
REMARK    7  A    between atoms: _18  and  _20
REMARK    8  A    between atoms: _20  and  _21
REMARK    9  A    between atoms: _20  and  _23
REMARK   10  A    between atoms: _23  and  _24
REMARK   11  A    between atoms: _27  and  _29
REMARK   12  A    between atoms: _29  and  _30
REMARK   13  A    between atoms: _29  and  _32
REMARK   14  A    between atoms: _32  and  _33
REMARK   15  A    between atoms: _36  and  _38
REMARK   16  A    between atoms: _38  and  _39
REMARK   17  A    between atoms: _38  and  _41
REMARK   18  A    between atoms: _41  and  _42
REMARK   19  A    between atoms: _45  and  _47
REMARK   20  A    between atoms: _47  and  _48
REMARK   21  A    between atoms: _47  and  _50
REMARK   22  A    between atoms: _50  and  _51
REMARK   23  A    between atoms: _54  and  _56
REMARK   24  A    between atoms: _56  and  _57
REMARK   25  A    between atoms: _59  and  _61
REMARK   26  A    between atoms: _61  and  _62
REMARK   27  A    between atoms: _65  and  _67
REMARK   28  A    between atoms: _67  and  _68
REMARK   29  A    between atoms: _67  and  _70
REMARK   30  A    between atoms: _70  and  _71
REMARK   31  A    between atoms: _74  and  _76
REMARK   32  A    between atoms: _76  and  _77
REMARK   33  A    between atoms: _76  and  _79
REMARK   34  A    between atoms: _79  and  _80
REMARK   35  A    between atoms: _83  and  _85
REMARK   36  A    between atoms: _85  and  _86
REMARK   37  A    between atoms: _85  and  _88
REMARK   38  A    between atoms: _88  and  _89
REMARK   39  A    between atoms: _91  and  _93
REMARK   40  A    between atoms: _93  and  _94
REMARK   41  A    between atoms: _93  and  _96
REMARK   42  A    between atoms: _99  and  _101
REMARK   43  A    between atoms: _101  and  _102
REMARK   44  A    between atoms: _101  and  _104
REMARK   45  A    between atoms: _104  and  _105
REMARK   46  A    between atoms: _108  and  _110
REMARK   47  A    between atoms: _110  and  _111
REMARK   48  A    between atoms: _113  and  _115
REMARK   49  A    between atoms: _115  and  _116
REMARK   50  A    between atoms: _115  and  _118
REMARK   51  A    between atoms: _118  and  _119
REMARK   52  A    between atoms: _122  and  _124
REMARK   53  A    between atoms: _124  and  _125
REMARK   54  A    between atoms: _127  and  _129
REMARK   55  A    between atoms: _129  and  _130
REMARK   56  A    between atoms: _132  and  _134
REMARK   57  A    between atoms: _134  and  _135
REMARK   58  A    between atoms: _134  and  _137
REMARK   59  A    between atoms: _140  and  _142
REMARK   60  A    between atoms: _142  and  _143
REMARK   61  A    between atoms: _145  and  _147
REMARK   62  A    between atoms: _147  and  _148
REMARK   63  A    between atoms: _150  and  _152
REMARK   64  A    between atoms: _152  and  _153
REMARK   65  A    between atoms: _152  and  _155
REMARK   66  A    between atoms: _155  and  _156
REMARK   67  A    between atoms: _161  and  _163
REMARK   68  A    between atoms: _163  and  _164
REMARK   69  A    between atoms: _163  and  _166
REMARK   70  A    between atoms: _169  and  _171
REMARK   71  A    between atoms: _171  and  _172
REMARK   72  A    between atoms: _171  and  _174
REMARK   73  A    between atoms: _174  and  _175
REMARK   74  A    between atoms: _178  and  _180
REMARK   75  A    between atoms: _180  and  _181
REMARK   76  A    between atoms: _180  and  _183
REMARK   77  A    between atoms: _183  and  _184
REMARK   78  A    between atoms: _188  and  _189
REMARK   79  A    between atoms: _194  and  _196
REMARK   80  A    between atoms: _196  and  _197
REMARK   81  A    between atoms: _196  and  _199
REMARK   82  A    between atoms: _202  and  _204
REMARK   83  A    between atoms: _204  and  _205
REMARK   84  A    between atoms: _204  and  _207
REMARK   85  A    between atoms: _207  and  _208
REMARK   86  A    between atoms: _211  and  _213
REMARK   87  A    between atoms: _213  and  _214
REMARK   88  A    between atoms: _213  and  _216
REMARK   89  A    between atoms: _216  and  _217
REMARK   90  A    between atoms: _220  and  _222
REMARK   91  A    between atoms: _222  and  _223
REMARK   92  A    between atoms: _222  and  _225
REMARK   93  A    between atoms: _225  and  _226
REMARK   94  A    between atoms: _229  and  _231
REMARK   95  A    between atoms: _231  and  _232
REMARK   96  A    between atoms: _234  and  _236
REMARK   97  A    between atoms: _236  and  _237
REMARK   98  A    between atoms: _236  and  _239
REMARK   99  A    between atoms: _239  and  _240
REMARK  100  A    between atoms: _240  and  _241
REMARK  101  A    between atoms: _241  and  _242
REMARK  102  A    between atoms: _251  and  _253
REMARK  103  A    between atoms: _253  and  _254
REMARK  104  A    between atoms: _253  and  _256
REMARK  105  A    between atoms: _256  and  _257
REMARK  106  A    between atoms: _257  and  _258
REMARK  107  A    between atoms: _258  and  _259
REMARK  108  A    between atoms: _268  and  _270
REMARK  109  A    between atoms: _270  and  _271
REMARK  110  A    between atoms: _270  and  _273
REMARK  111  A    between atoms: _273  and  _274
REMARK  112  A    between atoms: _277  and  _279
REMARK  113  A    between atoms: _279  and  _280
REMARK  114  A    between atoms: _279  and  _282
REMARK  115  A    between atoms: _282  and  _283
REMARK  116  A    between atoms: _286  and  _288
REMARK  117  A    between atoms: _288  and  _289
REMARK  118  A    between atoms: _288  and  _291
REMARK  119  A    between atoms: _291  and  _292
REMARK  120  A    between atoms: _295  and  _297
REMARK  121  A    between atoms: _297  and  _298
REMARK  122  A    between atoms: _297  and  _300
REMARK  123  A    between atoms: _300  and  _301
REMARK  124  A    between atoms: _304  and  _306
REMARK  125  A    between atoms: _306  and  _307
REMARK  126  A    between atoms: _306  and  _309
REMARK  127  A    between atoms: _309  and  _310
REMARK  128  A    between atoms: _313  and  _315
REMARK  129  A    between atoms: _315  and  _316
REMARK  130  A    between atoms: _318  and  _320
REMARK  131  A    between atoms: _320  and  _321
REMARK  132  A    between atoms: _324  and  _326
REMARK  133  A    between atoms: _326  and  _327
REMARK  134  A    between atoms: _326  and  _329
REMARK  135  A    between atoms: _329  and  _330
REMARK  136  A    between atoms: _333  and  _335
REMARK  137  A    between atoms: _335  and  _336
REMARK  138  A    between atoms: _335  and  _338
REMARK  139  A    between atoms: _338  and  _339
REMARK  140  A    between atoms: _342  and  _344
REMARK  141  A    between atoms: _344  and  _345
REMARK  142  A    between atoms: _344  and  _347
REMARK  143  A    between atoms: _347  and  _348
REMARK  144  A    between atoms: _350  and  _352
REMARK  145  A    between atoms: _352  and  _353
REMARK  146  A    between atoms: _352  and  _355
REMARK  147  A    between atoms: _358  and  _360
REMARK  148  A    between atoms: _360  and  _361
REMARK  149  A    between atoms: _360  and  _363
REMARK  150  A    between atoms: _363  and  _364
REMARK  151  A    between atoms: _367  and  _369
REMARK  152  A    between atoms: _369  and  _370
REMARK  153  A    between atoms: _372  and  _374
REMARK  154  A    between atoms: _374  and  _375
REMARK  155  A    between atoms: _374  and  _377
REMARK  156  A    between atoms: _377  and  _378
REMARK  157  A    between atoms: _381  and  _383
REMARK  158  A    between atoms: _383  and  _384
REMARK  159  A    between atoms: _386  and  _388
REMARK  160  A    between atoms: _388  and  _389
REMARK  161  A    between atoms: _391  and  _393
REMARK  162  A    between atoms: _393  and  _394
REMARK  163  A    between atoms: _393  and  _396
REMARK  164  A    between atoms: _399  and  _401
REMARK  165  A    between atoms: _401  and  _402
REMARK  166  A    between atoms: _404  and  _406
REMARK  167  A    between atoms: _406  and  _407
REMARK  168  A    between atoms: _409  and  _411
REMARK  169  A    between atoms: _411  and  _412
REMARK  170  A    between atoms: _411  and  _414
REMARK  171  A    between atoms: _414  and  _415
REMARK  172  A    between atoms: _420  and  _422
REMARK  173  A    between atoms: _422  and  _423
REMARK  174  A    between atoms: _422  and  _425
REMARK  175  A    between atoms: _428  and  _430
REMARK  176  A    between atoms: _430  and  _431
REMARK  177  A    between atoms: _430  and  _433
REMARK  178  A    between atoms: _433  and  _434
REMARK  179  A    between atoms: _437  and  _439
REMARK  180  A    between atoms: _439  and  _440
REMARK  181  A    between atoms: _439  and  _442
REMARK  182  A    between atoms: _442  and  _443
REMARK  183  A    between atoms: _446  and  _448
REMARK  184  A    between atoms: _448  and  _449
REMARK  185  A    between atoms: _448  and  _451
REMARK  186  A    between atoms: _451  and  _452
REMARK  187  A    between atoms: _456  and  _457
REMARK  188  A    between atoms: _462  and  _464
REMARK  189  A    between atoms: _464  and  _465
REMARK  190  A    between atoms: _464  and  _467
REMARK  191  A    between atoms: _470  and  _472
REMARK  192  A    between atoms: _472  and  _473
REMARK  193  A    between atoms: _472  and  _475
REMARK  194  A    between atoms: _475  and  _476
REMARK  195  A    between atoms: _479  and  _481
REMARK  196  A    between atoms: _481  and  _482
REMARK  197  A    between atoms: _481  and  _484
REMARK  198  A    between atoms: _484  and  _485
REMARK  199  A    between atoms: _488  and  _490
REMARK  200  A    between atoms: _490  and  _491
REMARK  201  A    between atoms: _493  and  _495
REMARK  202  A    between atoms: _495  and  _496
REMARK  203  A    between atoms: _495  and  _498
REMARK  204  A    between atoms: _498  and  _499
REMARK  205  A    between atoms: _499  and  _500
REMARK  206  A    between atoms: _500  and  _501
REMARK                            x       y       z     vdW  Elec       q    Type
REMARK                         _______ _______ _______ _____ _____    ______ ____
ROOT
ATOM      1  O   HOH     1       6.071  12.955   2.702  0.00  0.00    +0.000 OA
ENDROOT
TORSDOF 0
REMARK  Name = ../refined-set-2016/2fmb/2fmb_pocket.pdb
REMARK  206 active torsions:
REMARK  status: ('A' for Active; 'I' for Inactive)
REMARK    1  A    between atoms: _1  and  _3
REMARK    2  A    between atoms: _3  and  _4
REMARK    3  A    between atoms: _3  and  _6
REMARK    4  A    between atoms: _6  and  _7
REMARK    5  A    between atoms: _7  and  _8
REMARK    6  A    between atoms: _8  and  _9
REMARK    7  A    between atoms: _18  and  _20
REMARK    8  A    between atoms: _20  and  _21
REMARK    9  A    between atoms: _20  and  _23
REMARK   10  A    between atoms: _23  and  _24
REMARK   11  A    between atoms: _27  and  _29
REMARK   12  A    between atoms: _29  and  _30
REMARK   13  A    between atoms: _29  and  _32
REMARK   14  A    between atoms: _32  and  _33
REMARK   15  A    between atoms: _36  and  _38
REMARK   16  A    between atoms: _38  and  _39
REMARK   17  A    between atoms: _38  and  _41
REMARK   18  A    between atoms: _41  and  _42
REMARK   19  A    between atoms: _45  and  _47
REMARK   20  A    between atoms: _47  and  _48
REMARK   21  A    between atoms: _47  and  _50
REMARK   22  A    between atoms: _50  and  _51
REMARK   23  A    between atoms: _54  and  _56
REMARK   24  A    between atoms: _56  and  _57
REMARK   25  A    between atoms: _59  and  _61
REMARK   26  A    between atoms: _61  and  _62
REMARK   27  A    between atoms: _65  and  _67
REMARK   28  A    between atoms: _67  and  _68
REMARK   29  A    between atoms: _67  and  _70
REMARK   30  A    between atoms: _70  and  _71
REMARK   31  A    between atoms: _74  and  _76
REMARK   32  A    between atoms: _76  and  _77
REMARK   33  A    between atoms: _76  and  _79
REMARK   34  A    between atoms: _79  and  _80
REMARK   35  A    between atoms: _83  and  _85
REMARK   36  A    between atoms: _85  and  _86
REMARK   37  A    between atoms: _85  and  _88
REMARK   38  A    between atoms: _88  and  _89
REMARK   39  A    between atoms: _91  and  _93
REMARK   40  A    between atoms: _93  and  _94
REMARK   41  A    between atoms: _93  and  _96
REMARK   42  A    between atoms: _99  and  _101
REMARK   43  A    between atoms: _101  and  _102
REMARK   44  A    between atoms: _101  and  _104
REMARK   45  A    between atoms: _104  and  _105
REMARK   46  A    between atoms: _108  and  _110
REMARK   47  A    between atoms: _110  and  _111
REMARK   48  A    between atoms: _113  and  _115
REMARK   49  A    between atoms: _115  and  _116
REMARK   50  A    between atoms: _115  and  _118
REMARK   51  A    between atoms: _118  and  _119
REMARK   52  A    between atoms: _122  and  _124
REMARK   53  A    between atoms: _124  and  _125
REMARK   54  A    between atoms: _127  and  _129
REMARK   55  A    between atoms: _129  and  _130
REMARK   56  A    between atoms: _132  and  _134
REMARK   57  A    between atoms: _134  and  _135
REMARK   58  A    between atoms: _134  and  _137
REMARK   59  A    between atoms: _140  and  _142
REMARK   60  A    between atoms: _142  and  _143
REMARK   61  A    between atoms: _145  and  _147
REMARK   62  A    between atoms: _147  and  _148
REMARK   63  A    between atoms: _150  and  _152
REMARK   64  A    between atoms: _152  and  _153
REMARK   65  A    between atoms: _152  and  _155
REMARK   66  A    between atoms: _155  and  _156
REMARK   67  A    between atoms: _161  and  _163
REMARK   68  A    between atoms: _163  and  _164
REMARK   69  A    between atoms: _163  and  _166
REMARK   70  A    between atoms: _169  and  _171
REMARK   71  A    between atoms: _171  and  _172
REMARK   72  A    between atoms: _171  and  _174
REMARK   73  A    between atoms: _174  and  _175
REMARK   74  A    between atoms: _178  and  _180
REMARK   75  A    between atoms: _180  and  _181
REMARK   76  A    between atoms: _180  and  _183
REMARK   77  A    between atoms: _183  and  _184
REMARK   78  A    between atoms: _188  and  _189
REMARK   79  A    between atoms: _194  and  _196
REMARK   80  A    between atoms: _196  and  _197
REMARK   81  A    between atoms: _196  and  _199
REMARK   82  A    between atoms: _202  and  _204
REMARK   83  A    between atoms: _204  and  _205
REMARK   84  A    between atoms: _204  and  _207
REMARK   85  A    between atoms: _207  and  _208
REMARK   86  A    between atoms: _211  and  _213
REMARK   87  A    between atoms: _213  and  _214
REMARK   88  A    between atoms: _213  and  _216
REMARK   89  A    between atoms: _216  and  _217
REMARK   90  A    between atoms: _220  and  _222
REMARK   91  A    between atoms: _222  and  _223
REMARK   92  A    between atoms: _222  and  _225
REMARK   93  A    between atoms: _225  and  _226
REMARK   94  A    between atoms: _229  and  _231
REMARK   95  A    between atoms: _231  and  _232
REMARK   96  A    between atoms: _234  and  _236
REMARK   97  A    between atoms: _236  and  _237
REMARK   98  A    between atoms: _236  and  _239
REMARK   99  A    between atoms: _239  and  _240
REMARK  100  A    between atoms: _240  and  _241
REMARK  101  A    between atoms: _241  and  _242
REMARK  102  A    between atoms: _251  and  _253
REMARK  103  A    between atoms: _253  and  _254
REMARK  104  A    between atoms: _253  and  _256
REMARK  105  A    between atoms: _256  and  _257
REMARK  106  A    between atoms: _257  and  _258
REMARK  107  A    between atoms: _258  and  _259
REMARK  108  A    between atoms: _268  and  _270
REMARK  109  A    between atoms: _270  and  _271
REMARK  110  A    between atoms: _270  and  _273
REMARK  111  A    between atoms: _273  and  _274
REMARK  112  A    between atoms: _277  and  _279
REMARK  113  A    between atoms: _279  and  _280
REMARK  114  A    between atoms: _279  and  _282
REMARK  115  A    between atoms: _282  and  _283
REMARK  116  A    between atoms: _286  and  _288
REMARK  117  A    between atoms: _288  and  _289
REMARK  118  A    between atoms: _288  and  _291
REMARK  119  A    between atoms: _291  and  _292
REMARK  120  A    between atoms: _295  and  _297
REMARK  121  A    between atoms: _297  and  _298
REMARK  122  A    between atoms: _297  and  _300
REMARK  123  A    between atoms: _300  and  _301
REMARK  124  A    between atoms: _304  and  _306
REMARK  125  A    between atoms: _306  and  _307
REMARK  126  A    between atoms: _306  and  _309
REMARK  127  A    between atoms: _309  and  _310
REMARK  128  A    between atoms: _313  and  _315
REMARK  129  A    between atoms: _315  and  _316
REMARK  130  A    between atoms: _318  and  _320
REMARK  131  A    between atoms: _320  and  _321
REMARK  132  A    between atoms: _324  and  _326
REMARK  133  A    between atoms: _326  and  _327
REMARK  134  A    between atoms: _326  and  _329
REMARK  135  A    between atoms: _329  and  _330
REMARK  136  A    between atoms: _333  and  _335
REMARK  137  A    between atoms: _335  and  _336
REMARK  138  A    between atoms: _335  and  _338
REMARK  139  A    between atoms: _338  and  _339
REMARK  140  A    between atoms: _342  and  _344
REMARK  141  A    between atoms: _344  and  _345
REMARK  142  A    between atoms: _344  and  _347
REMARK  143  A    between atoms: _347  and  _348
REMARK  144  A    between atoms: _350  and  _352
REMARK  145  A    between atoms: _352  and  _353
REMARK  146  A    between atoms: _352  and  _355
REMARK  147  A    between atoms: _358  and  _360
REMARK  148  A    between atoms: _360  and  _361
REMARK  149  A    between atoms: _360  and  _363
REMARK  150  A    between atoms: _363  and  _364
REMARK  151  A    between atoms: _367  and  _369
REMARK  152  A    between atoms: _369  and  _370
REMARK  153  A    between atoms: _372  and  _374
REMARK  154  A    between atoms: _374  and  _375
REMARK  155  A    between atoms: _374  and  _377
REMARK  156  A    between atoms: _377  and  _378
REMARK  157  A    between atoms: _381  and  _383
REMARK  158  A    between atoms: _383  and  _384
REMARK  159  A    between atoms: _386  and  _388
REMARK  160  A    between atoms: _388  and  _389
REMARK  161  A    between atoms: _391  and  _393
REMARK  162  A    between atoms: _393  and  _394
REMARK  163  A    between atoms: _393  and  _396
REMARK  164  A    between atoms: _399  and  _401
REMARK  165  A    between atoms: _401  and  _402
REMARK  166  A    between atoms: _404  and  _406
REMARK  167  A    between atoms: _406  and  _407
REMARK  168  A    between atoms: _409  and  _411
REMARK  169  A    between atoms: _411  and  _412
REMARK  170  A    between atoms: _411  and  _414
REMARK  171  A    between atoms: _414  and  _415
REMARK  172  A    between atoms: _420  and  _422
REMARK  173  A    between atoms: _422  and  _423
REMARK  174  A    between atoms: _422  and  _425
REMARK  175  A    between atoms: _428  and  _430
REMARK  176  A    between atoms: _430  and  _431
REMARK  177  A    between atoms: _430  and  _433
REMARK  178  A    between atoms: _433  and  _434
REMARK  179  A    between atoms: _437  and  _439
REMARK  180  A    between atoms: _439  and  _440
REMARK  181  A    between atoms: _439  and  _442
REMARK  182  A    between atoms: _442  and  _443
REMARK  183  A    between atoms: _446  and  _448
REMARK  184  A    between atoms: _448  and  _449
REMARK  185  A    between atoms: _448  and  _451
REMARK  186  A    between atoms: _451  and  _452
REMARK  187  A    between atoms: _456  and  _457
REMARK  188  A    between atoms: _462  and  _464
REMARK  189  A    between atoms: _464  and  _465
REMARK  190  A    between atoms: _464  and  _467
REMARK  191  A    between atoms: _470  and  _472
REMARK  192  A    between atoms: _472  and  _473
REMARK  193  A    between atoms: _472  and  _475
REMARK  194  A    between atoms: _475  and  _476
REMARK  195  A    between atoms: _479  and  _481
REMARK  196  A    between atoms: _481  and  _482
REMARK  197  A    between atoms: _481  and  _484
REMARK  198  A    between atoms: _484  and  _485
REMARK  199  A    between atoms: _488  and  _490
REMARK  200  A    between atoms: _490  and  _491
REMARK  201  A    between atoms: _493  and  _495
REMARK  202  A    between atoms: _495  and  _496
REMARK  203  A    between atoms: _495  and  _498
REMARK  204  A    between atoms: _498  and  _499
REMARK  205  A    between atoms: _499  and  _500
REMARK  206  A    between atoms: _500  and  _501
REMARK                            x       y       z     vdW  Elec       q    Type
REMARK                         _______ _______ _______ _____ _____    ______ ____
ROOT
ATOM      1  O   HOH     1       6.291  15.780   2.202  0.00  0.00    +0.000 OA
ENDROOT
TORSDOF 0
REMARK  Name = ../refined-set-2016/2fmb/2fmb_pocket.pdb
REMARK  206 active torsions:
REMARK  status: ('A' for Active; 'I' for Inactive)
REMARK    1  A    between atoms: _1  and  _3
REMARK    2  A    between atoms: _3  and  _4
REMARK    3  A    between atoms: _3  and  _6
REMARK    4  A    between atoms: _6  and  _7
REMARK    5  A    between atoms: _7  and  _8
REMARK    6  A    between atoms: _8  and  _9
REMARK    7  A    between atoms: _18  and  _20
REMARK    8  A    between atoms: _20  and  _21
REMARK    9  A    between atoms: _20  and  _23
REMARK   10  A    between atoms: _23  and  _24
REMARK   11  A    between atoms: _27  and  _29
REMARK   12  A    between atoms: _29  and  _30
REMARK   13  A    between atoms: _29  and  _32
REMARK   14  A    between atoms: _32  and  _33
REMARK   15  A    between atoms: _36  and  _38
REMARK   16  A    between atoms: _38  and  _39
REMARK   17  A    between atoms: _38  and  _41
REMARK   18  A    between atoms: _41  and  _42
REMARK   19  A    between atoms: _45  and  _47
REMARK   20  A    between atoms: _47  and  _48
REMARK   21  A    between atoms: _47  and  _50
REMARK   22  A    between atoms: _50  and  _51
REMARK   23  A    between atoms: _54  and  _56
REMARK   24  A    between atoms: _56  and  _57
REMARK   25  A    between atoms: _59  and  _61
REMARK   26  A    between atoms: _61  and  _62
REMARK   27  A    between atoms: _65  and  _67
REMARK   28  A    between atoms: _67  and  _68
REMARK   29  A    between atoms: _67  and  _70
REMARK   30  A    between atoms: _70  and  _71
REMARK   31  A    between atoms: _74  and  _76
REMARK   32  A    between atoms: _76  and  _77
REMARK   33  A    between atoms: _76  and  _79
REMARK   34  A    between atoms: _79  and  _80
REMARK   35  A    between atoms: _83  and  _85
REMARK   36  A    between atoms: _85  and  _86
REMARK   37  A    between atoms: _85  and  _88
REMARK   38  A    between atoms: _88  and  _89
REMARK   39  A    between atoms: _91  and  _93
REMARK   40  A    between atoms: _93  and  _94
REMARK   41  A    between atoms: _93  and  _96
REMARK   42  A    between atoms: _99  and  _101
REMARK   43  A    between atoms: _101  and  _102
REMARK   44  A    between atoms: _101  and  _104
REMARK   45  A    between atoms: _104  and  _105
REMARK   46  A    between atoms: _108  and  _110
REMARK   47  A    between atoms: _110  and  _111
REMARK   48  A    between atoms: _113  and  _115
REMARK   49  A    between atoms: _115  and  _116
REMARK   50  A    between atoms: _115  and  _118
REMARK   51  A    between atoms: _118  and  _119
REMARK   52  A    between atoms: _122  and  _124
REMARK   53  A    between atoms: _124  and  _125
REMARK   54  A    between atoms: _127  and  _129
REMARK   55  A    between atoms: _129  and  _130
REMARK   56  A    between atoms: _132  and  _134
REMARK   57  A    between atoms: _134  and  _135
REMARK   58  A    between atoms: _134  and  _137
REMARK   59  A    between atoms: _140  and  _142
REMARK   60  A    between atoms: _142  and  _143
REMARK   61  A    between atoms: _145  and  _147
REMARK   62  A    between atoms: _147  and  _148
REMARK   63  A    between atoms: _150  and  _152
REMARK   64  A    between atoms: _152  and  _153
REMARK   65  A    between atoms: _152  and  _155
REMARK   66  A    between atoms: _155  and  _156
REMARK   67  A    between atoms: _161  and  _163
REMARK   68  A    between atoms: _163  and  _164
REMARK   69  A    between atoms: _163  and  _166
REMARK   70  A    between atoms: _169  and  _171
REMARK   71  A    between atoms: _171  and  _172
REMARK   72  A    between atoms: _171  and  _174
REMARK   73  A    between atoms: _174  and  _175
REMARK   74  A    between atoms: _178  and  _180
REMARK   75  A    between atoms: _180  and  _181
REMARK   76  A    between atoms: _180  and  _183
REMARK   77  A    between atoms: _183  and  _184
REMARK   78  A    between atoms: _188  and  _189
REMARK   79  A    between atoms: _194  and  _196
REMARK   80  A    between atoms: _196  and  _197
REMARK   81  A    between atoms: _196  and  _199
REMARK   82  A    between atoms: _202  and  _204
REMARK   83  A    between atoms: _204  and  _205
REMARK   84  A    between atoms: _204  and  _207
REMARK   85  A    between atoms: _207  and  _208
REMARK   86  A    between atoms: _211  and  _213
REMARK   87  A    between atoms: _213  and  _214
REMARK   88  A    between atoms: _213  and  _216
REMARK   89  A    between atoms: _216  and  _217
REMARK   90  A    between atoms: _220  and  _222
REMARK   91  A    between atoms: _222  and  _223
REMARK   92  A    between atoms: _222  and  _225
REMARK   93  A    between atoms: _225  and  _226
REMARK   94  A    between atoms: _229  and  _231
REMARK   95  A    between atoms: _231  and  _232
REMARK   96  A    between atoms: _234  and  _236
REMARK   97  A    between atoms: _236  and  _237
REMARK   98  A    between atoms: _236  and  _239
REMARK   99  A    between atoms: _239  and  _240
REMARK  100  A    between atoms: _240  and  _241
REMARK  101  A    between atoms: _241  and  _242
REMARK  102  A    between atoms: _251  and  _253
REMARK  103  A    between atoms: _253  and  _254
REMARK  104  A    between atoms: _253  and  _256
REMARK  105  A    between atoms: _256  and  _257
REMARK  106  A    between atoms: _257  and  _258
REMARK  107  A    between atoms: _258  and  _259
REMARK  108  A    between atoms: _268  and  _270
REMARK  109  A    between atoms: _270  and  _271
REMARK  110  A    between atoms: _270  and  _273
REMARK  111  A    between atoms: _273  and  _274
REMARK  112  A    between atoms: _277  and  _279
REMARK  113  A    between atoms: _279  and  _280
REMARK  114  A    between atoms: _279  and  _282
REMARK  115  A    between atoms: _282  and  _283
REMARK  116  A    between atoms: _286  and  _288
REMARK  117  A    between atoms: _288  and  _289
REMARK  118  A    between atoms: _288  and  _291
REMARK  119  A    between atoms: _291  and  _292
REMARK  120  A    between atoms: _295  and  _297
REMARK  121  A    between atoms: _297  and  _298
REMARK  122  A    between atoms: _297  and  _300
REMARK  123  A    between atoms: _300  and  _301
REMARK  124  A    between atoms: _304  and  _306
REMARK  125  A    between atoms: _306  and  _307
REMARK  126  A    between atoms: _306  and  _309
REMARK  127  A    between atoms: _309  and  _310
REMARK  128  A    between atoms: _313  and  _315
REMARK  129  A    between atoms: _315  and  _316
REMARK  130  A    between atoms: _318  and  _320
REMARK  131  A    between atoms: _320  and  _321
REMARK  132  A    between atoms: _324  and  _326
REMARK  133  A    between atoms: _326  and  _327
REMARK  134  A    between atoms: _326  and  _329
REMARK  135  A    between atoms: _329  and  _330
REMARK  136  A    between atoms: _333  and  _335
REMARK  137  A    between atoms: _335  and  _336
REMARK  138  A    between atoms: _335  and  _338
REMARK  139  A    between atoms: _338  and  _339
REMARK  140  A    between atoms: _342  and  _344
REMARK  141  A    between atoms: _344  and  _345
REMARK  142  A    between atoms: _344  and  _347
REMARK  143  A    between atoms: _347  and  _348
REMARK  144  A    between atoms: _350  and  _352
REMARK  145  A    between atoms: _352  and  _353
REMARK  146  A    between atoms: _352  and  _355
REMARK  147  A    between atoms: _358  and  _360
REMARK  148  A    between atoms: _360  and  _361
REMARK  149  A    between atoms: _360  and  _363
REMARK  150  A    between atoms: _363  and  _364
REMARK  151  A    between atoms: _367  and  _369
REMARK  152  A    between atoms: _369  and  _370
REMARK  153  A    between atoms: _372  and  _374
REMARK  154  A    between atoms: _374  and  _375
REMARK  155  A    between atoms: _374  and  _377
REMARK  156  A    between atoms: _377  and  _378
REMARK  157  A    between atoms: _381  and  _383
REMARK  158  A    between atoms: _383  and  _384
REMARK  159  A    between atoms: _386  and  _388
REMARK  160  A    between atoms: _388  and  _389
REMARK  161  A    between atoms: _391  and  _393
REMARK  162  A    between atoms: _393  and  _394
REMARK  163  A    between atoms: _393  and  _396
REMARK  164  A    between atoms: _399  and  _401
REMARK  165  A    between atoms: _401  and  _402
REMARK  166  A    between atoms: _404  and  _406
REMARK  167  A    between atoms: _406  and  _407
REMARK  168  A    between atoms: _409  and  _411
REMARK  169  A    between atoms: _411  and  _412
REMARK  170  A    between atoms: _411  and  _414
REMARK  171  A    between atoms: _414  and  _415
REMARK  172  A    between atoms: _420  and  _422
REMARK  173  A    between atoms: _422  and  _423
REMARK  174  A    between atoms: _422  and  _425
REMARK  175  A    between atoms: _428  and  _430
REMARK  176  A    between atoms: _430  and  _431
REMARK  177  A    between atoms: _430  and  _433
REMARK  178  A    between atoms: _433  and  _434
REMARK  179  A    between atoms: _437  and  _439
REMARK  180  A    between atoms: _439  and  _440
REMARK  181  A    between atoms: _439  and  _442
REMARK  182  A    between atoms: _442  and  _443
REMARK  183  A    between atoms: _446  and  _448
REMARK  184  A    between atoms: _448  and  _449
REMARK  185  A    between atoms: _448  and  _451
REMARK  186  A    between atoms: _451  and  _452
REMARK  187  A    between atoms: _456  and  _457
REMARK  188  A    between atoms: _462  and  _464
REMARK  189  A    between atoms: _464  and  _465
REMARK  190  A    between atoms: _464  and  _467
REMARK  191  A    between atoms: _470  and  _472
REMARK  192  A    between atoms: _472  and  _473
REMARK  193  A    between atoms: _472  and  _475
REMARK  194  A    between atoms: _475  and  _476
REMARK  195  A    between atoms: _479  and  _481
REMARK  196  A    between atoms: _481  and  _482
REMARK  197  A    between atoms: _481  and  _484
REMARK  198  A    between atoms: _484  and  _485
REMARK  199  A    between atoms: _488  and  _490
REMARK  200  A    between atoms: _490  and  _491
REMARK  201  A    between atoms: _493  and  _495
REMARK  202  A    between atoms: _495  and  _496
REMARK  203  A    between atoms: _495  and  _498
REMARK  204  A    between atoms: _498  and  _499
REMARK  205  A    between atoms: _499  and  _500
REMARK  206  A    between atoms: _500  and  _501
REMARK                            x       y       z     vdW  Elec       q    Type
REMARK                         _______ _______ _______ _____ _____    ______ ____
ROOT
ATOM      1  O   HOH     1       8.026  24.254   6.142  0.00  0.00    +0.000 OA
ENDROOT
TORSDOF 0
REMARK  Name = ../refined-set-2016/2fmb/2fmb_pocket.pdb
REMARK  206 active torsions:
REMARK  status: ('A' for Active; 'I' for Inactive)
REMARK    1  A    between atoms: _1  and  _3
REMARK    2  A    between atoms: _3  and  _4
REMARK    3  A    between atoms: _3  and  _6
REMARK    4  A    between atoms: _6  and  _7
REMARK    5  A    between atoms: _7  and  _8
REMARK    6  A    between atoms: _8  and  _9
REMARK    7  A    between atoms: _18  and  _20
REMARK    8  A    between atoms: _20  and  _21
REMARK    9  A    between atoms: _20  and  _23
REMARK   10  A    between atoms: _23  and  _24
REMARK   11  A    between atoms: _27  and  _29
REMARK   12  A    between atoms: _29  and  _30
REMARK   13  A    between atoms: _29  and  _32
REMARK   14  A    between atoms: _32  and  _33
REMARK   15  A    between atoms: _36  and  _38
REMARK   16  A    between atoms: _38  and  _39
REMARK   17  A    between atoms: _38  and  _41
REMARK   18  A    between atoms: _41  and  _42
REMARK   19  A    between atoms: _45  and  _47
REMARK   20  A    between atoms: _47  and  _48
REMARK   21  A    between atoms: _47  and  _50
REMARK   22  A    between atoms: _50  and  _51
REMARK   23  A    between atoms: _54  and  _56
REMARK   24  A    between atoms: _56  and  _57
REMARK   25  A    between atoms: _59  and  _61
REMARK   26  A    between atoms: _61  and  _62
REMARK   27  A    between atoms: _65  and  _67
REMARK   28  A    between atoms: _67  and  _68
REMARK   29  A    between atoms: _67  and  _70
REMARK   30  A    between atoms: _70  and  _71
REMARK   31  A    between atoms: _74  and  _76
REMARK   32  A    between atoms: _76  and  _77
REMARK   33  A    between atoms: _76  and  _79
REMARK   34  A    between atoms: _79  and  _80
REMARK   35  A    between atoms: _83  and  _85
REMARK   36  A    between atoms: _85  and  _86
REMARK   37  A    between atoms: _85  and  _88
REMARK   38  A    between atoms: _88  and  _89
REMARK   39  A    between atoms: _91  and  _93
REMARK   40  A    between atoms: _93  and  _94
REMARK   41  A    between atoms: _93  and  _96
REMARK   42  A    between atoms: _99  and  _101
REMARK   43  A    between atoms: _101  and  _102
REMARK   44  A    between atoms: _101  and  _104
REMARK   45  A    between atoms: _104  and  _105
REMARK   46  A    between atoms: _108  and  _110
REMARK   47  A    between atoms: _110  and  _111
REMARK   48  A    between atoms: _113  and  _115
REMARK   49  A    between atoms: _115  and  _116
REMARK   50  A    between atoms: _115  and  _118
REMARK   51  A    between atoms: _118  and  _119
REMARK   52  A    between atoms: _122  and  _124
REMARK   53  A    between atoms: _124  and  _125
REMARK   54  A    between atoms: _127  and  _129
REMARK   55  A    between atoms: _129  and  _130
REMARK   56  A    between atoms: _132  and  _134
REMARK   57  A    between atoms: _134  and  _135
REMARK   58  A    between atoms: _134  and  _137
REMARK   59  A    between atoms: _140  and  _142
REMARK   60  A    between atoms: _142  and  _143
REMARK   61  A    between atoms: _145  and  _147
REMARK   62  A    between atoms: _147  and  _148
REMARK   63  A    between atoms: _150  and  _152
REMARK   64  A    between atoms: _152  and  _153
REMARK   65  A    between atoms: _152  and  _155
REMARK   66  A    between atoms: _155  and  _156
REMARK   67  A    between atoms: _161  and  _163
REMARK   68  A    between atoms: _163  and  _164
REMARK   69  A    between atoms: _163  and  _166
REMARK   70  A    between atoms: _169  and  _171
REMARK   71  A    between atoms: _171  and  _172
REMARK   72  A    between atoms: _171  and  _174
REMARK   73  A    between atoms: _174  and  _175
REMARK   74  A    between atoms: _178  and  _180
REMARK   75  A    between atoms: _180  and  _181
REMARK   76  A    between atoms: _180  and  _183
REMARK   77  A    between atoms: _183  and  _184
REMARK   78  A    between atoms: _188  and  _189
REMARK   79  A    between atoms: _194  and  _196
REMARK   80  A    between atoms: _196  and  _197
REMARK   81  A    between atoms: _196  and  _199
REMARK   82  A    between atoms: _202  and  _204
REMARK   83  A    between atoms: _204  and  _205
REMARK   84  A    between atoms: _204  and  _207
REMARK   85  A    between atoms: _207  and  _208
REMARK   86  A    between atoms: _211  and  _213
REMARK   87  A    between atoms: _213  and  _214
REMARK   88  A    between atoms: _213  and  _216
REMARK   89  A    between atoms: _216  and  _217
REMARK   90  A    between atoms: _220  and  _222
REMARK   91  A    between atoms: _222  and  _223
REMARK   92  A    between atoms: _222  and  _225
REMARK   93  A    between atoms: _225  and  _226
REMARK   94  A    between atoms: _229  and  _231
REMARK   95  A    between atoms: _231  and  _232
REMARK   96  A    between atoms: _234  and  _236
REMARK   97  A    between atoms: _236  and  _237
REMARK   98  A    between atoms: _236  and  _239
REMARK   99  A    between atoms: _239  and  _240
REMARK  100  A    between atoms: _240  and  _241
REMARK  101  A    between atoms: _241  and  _242
REMARK  102  A    between atoms: _251  and  _253
REMARK  103  A    between atoms: _253  and  _254
REMARK  104  A    between atoms: _253  and  _256
REMARK  105  A    between atoms: _256  and  _257
REMARK  106  A    between atoms: _257  and  _258
REMARK  107  A    between atoms: _258  and  _259
REMARK  108  A    between atoms: _268  and  _270
REMARK  109  A    between atoms: _270  and  _271
REMARK  110  A    between atoms: _270  and  _273
REMARK  111  A    between atoms: _273  and  _274
REMARK  112  A    between atoms: _277  and  _279
REMARK  113  A    between atoms: _279  and  _280
REMARK  114  A    between atoms: _279  and  _282
REMARK  115  A    between atoms: _282  and  _283
REMARK  116  A    between atoms: _286  and  _288
REMARK  117  A    between atoms: _288  and  _289
REMARK  118  A    between atoms: _288  and  _291
REMARK  119  A    between atoms: _291  and  _292
REMARK  120  A    between atoms: _295  and  _297
REMARK  121  A    between atoms: _297  and  _298
REMARK  122  A    between atoms: _297  and  _300
REMARK  123  A    between atoms: _300  and  _301
REMARK  124  A    between atoms: _304  and  _306
REMARK  125  A    between atoms: _306  and  _307
REMARK  126  A    between atoms: _306  and  _309
REMARK  127  A    between atoms: _309  and  _310
REMARK  128  A    between atoms: _313  and  _315
REMARK  129  A    between atoms: _315  and  _316
REMARK  130  A    between atoms: _318  and  _320
REMARK  131  A    between atoms: _320  and  _321
REMARK  132  A    between atoms: _324  and  _326
REMARK  133  A    between atoms: _326  and  _327
REMARK  134  A    between atoms: _326  and  _329
REMARK  135  A    between atoms: _329  and  _330
REMARK  136  A    between atoms: _333  and  _335
REMARK  137  A    between atoms: _335  and  _336
REMARK  138  A    between atoms: _335  and  _338
REMARK  139  A    between atoms: _338  and  _339
REMARK  140  A    between atoms: _342  and  _344
REMARK  141  A    between atoms: _344  and  _345
REMARK  142  A    between atoms: _344  and  _347
REMARK  143  A    between atoms: _347  and  _348
REMARK  144  A    between atoms: _350  and  _352
REMARK  145  A    between atoms: _352  and  _353
REMARK  146  A    between atoms: _352  and  _355
REMARK  147  A    between atoms: _358  and  _360
REMARK  148  A    between atoms: _360  and  _361
REMARK  149  A    between atoms: _360  and  _363
REMARK  150  A    between atoms: _363  and  _364
REMARK  151  A    between atoms: _367  and  _369
REMARK  152  A    between atoms: _369  and  _370
REMARK  153  A    between atoms: _372  and  _374
REMARK  154  A    between atoms: _374  and  _375
REMARK  155  A    between atoms: _374  and  _377
REMARK  156  A    between atoms: _377  and  _378
REMARK  157  A    between atoms: _381  and  _383
REMARK  158  A    between atoms: _383  and  _384
REMARK  159  A    between atoms: _386  and  _388
REMARK  160  A    between atoms: _388  and  _389
REMARK  161  A    between atoms: _391  and  _393
REMARK  162  A    between atoms: _393  and  _394
REMARK  163  A    between atoms: _393  and  _396
REMARK  164  A    between atoms: _399  and  _401
REMARK  165  A    between atoms: _401  and  _402
REMARK  166  A    between atoms: _404  and  _406
REMARK  167  A    between atoms: _406  and  _407
REMARK  168  A    between atoms: _409  and  _411
REMARK  169  A    between atoms: _411  and  _412
REMARK  170  A    between atoms: _411  and  _414
REMARK  171  A    between atoms: _414  and  _415
REMARK  172  A    between atoms: _420  and  _422
REMARK  173  A    between atoms: _422  and  _423
REMARK  174  A    between atoms: _422  and  _425
REMARK  175  A    between atoms: _428  and  _430
REMARK  176  A    between atoms: _430  and  _431
REMARK  177  A    between atoms: _430  and  _433
REMARK  178  A    between atoms: _433  and  _434
REMARK  179  A    between atoms: _437  and  _439
REMARK  180  A    between atoms: _439  and  _440
REMARK  181  A    between atoms: _439  and  _442
REMARK  182  A    between atoms: _442  and  _443
REMARK  183  A    between atoms: _446  and  _448
REMARK  184  A    between atoms: _448  and  _449
REMARK  185  A    between atoms: _448  and  _451
REMARK  186  A    between atoms: _451  and  _452
REMARK  187  A    between atoms: _456  and  _457
REMARK  188  A    between atoms: _462  and  _464
REMARK  189  A    between atoms: _464  and  _465
REMARK  190  A    between atoms: _464  and  _467
REMARK  191  A    between atoms: _470  and  _472
REMARK  192  A    between atoms: _472  and  _473
REMARK  193  A    between atoms: _472  and  _475
REMARK  194  A    between atoms: _475  and  _476
REMARK  195  A    between atoms: _479  and  _481
REMARK  196  A    between atoms: _481  and  _482
REMARK  197  A    between atoms: _481  and  _484
REMARK  198  A    between atoms: _484  and  _485
REMARK  199  A    between atoms: _488  and  _490
REMARK  200  A    between atoms: _490  and  _491
REMARK  201  A    between atoms: _493  and  _495
REMARK  202  A    between atoms: _495  and  _496
REMARK  203  A    between atoms: _495  and  _498
REMARK  204  A    between atoms: _498  and  _499
REMARK  205  A    between atoms: _499  and  _500
REMARK  206  A    between atoms: _500  and  _501
REMARK                            x       y       z     vdW  Elec       q    Type
REMARK                         _______ _______ _______ _____ _____    ______ ____
ROOT
ATOM      1  O   HOH     1       9.561  17.599   8.123  0.00  0.00    +0.000 OA
ENDROOT
TORSDOF 0
REMARK  Name = ../refined-set-2016/2fmb/2fmb_pocket.pdb
REMARK  206 active torsions:
REMARK  status: ('A' for Active; 'I' for Inactive)
REMARK    1  A    between atoms: _1  and  _3
REMARK    2  A    between atoms: _3  and  _4
REMARK    3  A    between atoms: _3  and  _6
REMARK    4  A    between atoms: _6  and  _7
REMARK    5  A    between atoms: _7  and  _8
REMARK    6  A    between atoms: _8  and  _9
REMARK    7  A    between atoms: _18  and  _20
REMARK    8  A    between atoms: _20  and  _21
REMARK    9  A    between atoms: _20  and  _23
REMARK   10  A    between atoms: _23  and  _24
REMARK   11  A    between atoms: _27  and  _29
REMARK   12  A    between atoms: _29  and  _30
REMARK   13  A    between atoms: _29  and  _32
REMARK   14  A    between atoms: _32  and  _33
REMARK   15  A    between atoms: _36  and  _38
REMARK   16  A    between atoms: _38  and  _39
REMARK   17  A    between atoms: _38  and  _41
REMARK   18  A    between atoms: _41  and  _42
REMARK   19  A    between atoms: _45  and  _47
REMARK   20  A    between atoms: _47  and  _48
REMARK   21  A    between atoms: _47  and  _50
REMARK   22  A    between atoms: _50  and  _51
REMARK   23  A    between atoms: _54  and  _56
REMARK   24  A    between atoms: _56  and  _57
REMARK   25  A    between atoms: _59  and  _61
REMARK   26  A    between atoms: _61  and  _62
REMARK   27  A    between atoms: _65  and  _67
REMARK   28  A    between atoms: _67  and  _68
REMARK   29  A    between atoms: _67  and  _70
REMARK   30  A    between atoms: _70  and  _71
REMARK   31  A    between atoms: _74  and  _76
REMARK   32  A    between atoms: _76  and  _77
REMARK   33  A    between atoms: _76  and  _79
REMARK   34  A    between atoms: _79  and  _80
REMARK   35  A    between atoms: _83  and  _85
REMARK   36  A    between atoms: _85  and  _86
REMARK   37  A    between atoms: _85  and  _88
REMARK   38  A    between atoms: _88  and  _89
REMARK   39  A    between atoms: _91  and  _93
REMARK   40  A    between atoms: _93  and  _94
REMARK   41  A    between atoms: _93  and  _96
REMARK   42  A    between atoms: _99  and  _101
REMARK   43  A    between atoms: _101  and  _102
REMARK   44  A    between atoms: _101  and  _104
REMARK   45  A    between atoms: _104  and  _105
REMARK   46  A    between atoms: _108  and  _110
REMARK   47  A    between atoms: _110  and  _111
REMARK   48  A    between atoms: _113  and  _115
REMARK   49  A    between atoms: _115  and  _116
REMARK   50  A    between atoms: _115  and  _118
REMARK   51  A    between atoms: _118  and  _119
REMARK   52  A    between atoms: _122  and  _124
REMARK   53  A    between atoms: _124  and  _125
REMARK   54  A    between atoms: _127  and  _129
REMARK   55  A    between atoms: _129  and  _130
REMARK   56  A    between atoms: _132  and  _134
REMARK   57  A    between atoms: _134  and  _135
REMARK   58  A    between atoms: _134  and  _137
REMARK   59  A    between atoms: _140  and  _142
REMARK   60  A    between atoms: _142  and  _143
REMARK   61  A    between atoms: _145  and  _147
REMARK   62  A    between atoms: _147  and  _148
REMARK   63  A    between atoms: _150  and  _152
REMARK   64  A    between atoms: _152  and  _153
REMARK   65  A    between atoms: _152  and  _155
REMARK   66  A    between atoms: _155  and  _156
REMARK   67  A    between atoms: _161  and  _163
REMARK   68  A    between atoms: _163  and  _164
REMARK   69  A    between atoms: _163  and  _166
REMARK   70  A    between atoms: _169  and  _171
REMARK   71  A    between atoms: _171  and  _172
REMARK   72  A    between atoms: _171  and  _174
REMARK   73  A    between atoms: _174  and  _175
REMARK   74  A    between atoms: _178  and  _180
REMARK   75  A    between atoms: _180  and  _181
REMARK   76  A    between atoms: _180  and  _183
REMARK   77  A    between atoms: _183  and  _184
REMARK   78  A    between atoms: _188  and  _189
REMARK   79  A    between atoms: _194  and  _196
REMARK   80  A    between atoms: _196  and  _197
REMARK   81  A    between atoms: _196  and  _199
REMARK   82  A    between atoms: _202  and  _204
REMARK   83  A    between atoms: _204  and  _205
REMARK   84  A    between atoms: _204  and  _207
REMARK   85  A    between atoms: _207  and  _208
REMARK   86  A    between atoms: _211  and  _213
REMARK   87  A    between atoms: _213  and  _214
REMARK   88  A    between atoms: _213  and  _216
REMARK   89  A    between atoms: _216  and  _217
REMARK   90  A    between atoms: _220  and  _222
REMARK   91  A    between atoms: _222  and  _223
REMARK   92  A    between atoms: _222  and  _225
REMARK   93  A    between atoms: _225  and  _226
REMARK   94  A    between atoms: _229  and  _231
REMARK   95  A    between atoms: _231  and  _232
REMARK   96  A    between atoms: _234  and  _236
REMARK   97  A    between atoms: _236  and  _237
REMARK   98  A    between atoms: _236  and  _239
REMARK   99  A    between atoms: _239  and  _240
REMARK  100  A    between atoms: _240  and  _241
REMARK  101  A    between atoms: _241  and  _242
REMARK  102  A    between atoms: _251  and  _253
REMARK  103  A    between atoms: _253  and  _254
REMARK  104  A    between atoms: _253  and  _256
REMARK  105  A    between atoms: _256  and  _257
REMARK  106  A    between atoms: _257  and  _258
REMARK  107  A    between atoms: _258  and  _259
REMARK  108  A    between atoms: _268  and  _270
REMARK  109  A    between atoms: _270  and  _271
REMARK  110  A    between atoms: _270  and  _273
REMARK  111  A    between atoms: _273  and  _274
REMARK  112  A    between atoms: _277  and  _279
REMARK  113  A    between atoms: _279  and  _280
REMARK  114  A    between atoms: _279  and  _282
REMARK  115  A    between atoms: _282  and  _283
REMARK  116  A    between atoms: _286  and  _288
REMARK  117  A    between atoms: _288  and  _289
REMARK  118  A    between atoms: _288  and  _291
REMARK  119  A    between atoms: _291  and  _292
REMARK  120  A    between atoms: _295  and  _297
REMARK  121  A    between atoms: _297  and  _298
REMARK  122  A    between atoms: _297  and  _300
REMARK  123  A    between atoms: _300  and  _301
REMARK  124  A    between atoms: _304  and  _306
REMARK  125  A    between atoms: _306  and  _307
REMARK  126  A    between atoms: _306  and  _309
REMARK  127  A    between atoms: _309  and  _310
REMARK  128  A    between atoms: _313  and  _315
REMARK  129  A    between atoms: _315  and  _316
REMARK  130  A    between atoms: _318  and  _320
REMARK  131  A    between atoms: _320  and  _321
REMARK  132  A    between atoms: _324  and  _326
REMARK  133  A    between atoms: _326  and  _327
REMARK  134  A    between atoms: _326  and  _329
REMARK  135  A    between atoms: _329  and  _330
REMARK  136  A    between atoms: _333  and  _335
REMARK  137  A    between atoms: _335  and  _336
REMARK  138  A    between atoms: _335  and  _338
REMARK  139  A    between atoms: _338  and  _339
REMARK  140  A    between atoms: _342  and  _344
REMARK  141  A    between atoms: _344  and  _345
REMARK  142  A    between atoms: _344  and  _347
REMARK  143  A    between atoms: _347  and  _348
REMARK  144  A    between atoms: _350  and  _352
REMARK  145  A    between atoms: _352  and  _353
REMARK  146  A    between atoms: _352  and  _355
REMARK  147  A    between atoms: _358  and  _360
REMARK  148  A    between atoms: _360  and  _361
REMARK  149  A    between atoms: _360  and  _363
REMARK  150  A    between atoms: _363  and  _364
REMARK  151  A    between atoms: _367  and  _369
REMARK  152  A    between atoms: _369  and  _370
REMARK  153  A    between atoms: _372  and  _374
REMARK  154  A    between atoms: _374  and  _375
REMARK  155  A    between atoms: _374  and  _377
REMARK  156  A    between atoms: _377  and  _378
REMARK  157  A    between atoms: _381  and  _383
REMARK  158  A    between atoms: _383  and  _384
REMARK  159  A    between atoms: _386  and  _388
REMARK  160  A    between atoms: _388  and  _389
REMARK  161  A    between atoms: _391  and  _393
REMARK  162  A    between atoms: _393  and  _394
REMARK  163  A    between atoms: _393  and  _396
REMARK  164  A    between atoms: _399  and  _401
REMARK  165  A    between atoms: _401  and  _402
REMARK  166  A    between atoms: _404  and  _406
REMARK  167  A    between atoms: _406  and  _407
REMARK  168  A    between atoms: _409  and  _411
REMARK  169  A    between atoms: _411  and  _412
REMARK  170  A    between atoms: _411  and  _414
REMARK  171  A    between atoms: _414  and  _415
REMARK  172  A    between atoms: _420  and  _422
REMARK  173  A    between atoms: _422  and  _423
REMARK  174  A    between atoms: _422  and  _425
REMARK  175  A    between atoms: _428  and  _430
REMARK  176  A    between atoms: _430  and  _431
REMARK  177  A    between atoms: _430  and  _433
REMARK  178  A    between atoms: _433  and  _434
REMARK  179  A    between atoms: _437  and  _439
REMARK  180  A    between atoms: _439  and  _440
REMARK  181  A    between atoms: _439  and  _442
REMARK  182  A    between atoms: _442  and  _443
REMARK  183  A    between atoms: _446  and  _448
REMARK  184  A    between atoms: _448  and  _449
REMARK  185  A    between atoms: _448  and  _451
REMARK  186  A    between atoms: _451  and  _452
REMARK  187  A    between atoms: _456  and  _457
REMARK  188  A    between atoms: _462  and  _464
REMARK  189  A    between atoms: _464  and  _465
REMARK  190  A    between atoms: _464  and  _467
REMARK  191  A    between atoms: _470  and  _472
REMARK  192  A    between atoms: _472  and  _473
REMARK  193  A    between atoms: _472  and  _475
REMARK  194  A    between atoms: _475  and  _476
REMARK  195  A    between atoms: _479  and  _481
REMARK  196  A    between atoms: _481  and  _482
REMARK  197  A    between atoms: _481  and  _484
REMARK  198  A    between atoms: _484  and  _485
REMARK  199  A    between atoms: _488  and  _490
REMARK  200  A    between atoms: _490  and  _491
REMARK  201  A    between atoms: _493  and  _495
REMARK  202  A    between atoms: _495  and  _496
REMARK  203  A    between atoms: _495  and  _498
REMARK  204  A    between atoms: _498  and  _499
REMARK  205  A    between atoms: _499  and  _500
REMARK  206  A    between atoms: _500  and  _501
REMARK                            x       y       z     vdW  Elec       q    Type
REMARK                         _______ _______ _______ _____ _____    ______ ____
ROOT
ATOM      1  O   HOH     1       7.492  12.808   9.707  0.00  0.00    +0.000 OA
ENDROOT
TORSDOF 0
REMARK  Name = ../refined-set-2016/2fmb/2fmb_pocket.pdb
REMARK  206 active torsions:
REMARK  status: ('A' for Active; 'I' for Inactive)
REMARK    1  A    between atoms: _1  and  _3
REMARK    2  A    between atoms: _3  and  _4
REMARK    3  A    between atoms: _3  and  _6
REMARK    4  A    between atoms: _6  and  _7
REMARK    5  A    between atoms: _7  and  _8
REMARK    6  A    between atoms: _8  and  _9
REMARK    7  A    between atoms: _18  and  _20
REMARK    8  A    between atoms: _20  and  _21
REMARK    9  A    between atoms: _20  and  _23
REMARK   10  A    between atoms: _23  and  _24
REMARK   11  A    between atoms: _27  and  _29
REMARK   12  A    between atoms: _29  and  _30
REMARK   13  A    between atoms: _29  and  _32
REMARK   14  A    between atoms: _32  and  _33
REMARK   15  A    between atoms: _36  and  _38
REMARK   16  A    between atoms: _38  and  _39
REMARK   17  A    between atoms: _38  and  _41
REMARK   18  A    between atoms: _41  and  _42
REMARK   19  A    between atoms: _45  and  _47
REMARK   20  A    between atoms: _47  and  _48
REMARK   21  A    between atoms: _47  and  _50
REMARK   22  A    between atoms: _50  and  _51
REMARK   23  A    between atoms: _54  and  _56
REMARK   24  A    between atoms: _56  and  _57
REMARK   25  A    between atoms: _59  and  _61
REMARK   26  A    between atoms: _61  and  _62
REMARK   27  A    between atoms: _65  and  _67
REMARK   28  A    between atoms: _67  and  _68
REMARK   29  A    between atoms: _67  and  _70
REMARK   30  A    between atoms: _70  and  _71
REMARK   31  A    between atoms: _74  and  _76
REMARK   32  A    between atoms: _76  and  _77
REMARK   33  A    between atoms: _76  and  _79
REMARK   34  A    between atoms: _79  and  _80
REMARK   35  A    between atoms: _83  and  _85
REMARK   36  A    between atoms: _85  and  _86
REMARK   37  A    between atoms: _85  and  _88
REMARK   38  A    between atoms: _88  and  _89
REMARK   39  A    between atoms: _91  and  _93
REMARK   40  A    between atoms: _93  and  _94
REMARK   41  A    between atoms: _93  and  _96
REMARK   42  A    between atoms: _99  and  _101
REMARK   43  A    between atoms: _101  and  _102
REMARK   44  A    between atoms: _101  and  _104
REMARK   45  A    between atoms: _104  and  _105
REMARK   46  A    between atoms: _108  and  _110
REMARK   47  A    between atoms: _110  and  _111
REMARK   48  A    between atoms: _113  and  _115
REMARK   49  A    between atoms: _115  and  _116
REMARK   50  A    between atoms: _115  and  _118
REMARK   51  A    between atoms: _118  and  _119
REMARK   52  A    between atoms: _122  and  _124
REMARK   53  A    between atoms: _124  and  _125
REMARK   54  A    between atoms: _127  and  _129
REMARK   55  A    between atoms: _129  and  _130
REMARK   56  A    between atoms: _132  and  _134
REMARK   57  A    between atoms: _134  and  _135
REMARK   58  A    between atoms: _134  and  _137
REMARK   59  A    between atoms: _140  and  _142
REMARK   60  A    between atoms: _142  and  _143
REMARK   61  A    between atoms: _145  and  _147
REMARK   62  A    between atoms: _147  and  _148
REMARK   63  A    between atoms: _150  and  _152
REMARK   64  A    between atoms: _152  and  _153
REMARK   65  A    between atoms: _152  and  _155
REMARK   66  A    between atoms: _155  and  _156
REMARK   67  A    between atoms: _161  and  _163
REMARK   68  A    between atoms: _163  and  _164
REMARK   69  A    between atoms: _163  and  _166
REMARK   70  A    between atoms: _169  and  _171
REMARK   71  A    between atoms: _171  and  _172
REMARK   72  A    between atoms: _171  and  _174
REMARK   73  A    between atoms: _174  and  _175
REMARK   74  A    between atoms: _178  and  _180
REMARK   75  A    between atoms: _180  and  _181
REMARK   76  A    between atoms: _180  and  _183
REMARK   77  A    between atoms: _183  and  _184
REMARK   78  A    between atoms: _188  and  _189
REMARK   79  A    between atoms: _194  and  _196
REMARK   80  A    between atoms: _196  and  _197
REMARK   81  A    between atoms: _196  and  _199
REMARK   82  A    between atoms: _202  and  _204
REMARK   83  A    between atoms: _204  and  _205
REMARK   84  A    between atoms: _204  and  _207
REMARK   85  A    between atoms: _207  and  _208
REMARK   86  A    between atoms: _211  and  _213
REMARK   87  A    between atoms: _213  and  _214
REMARK   88  A    between atoms: _213  and  _216
REMARK   89  A    between atoms: _216  and  _217
REMARK   90  A    between atoms: _220  and  _222
REMARK   91  A    between atoms: _222  and  _223
REMARK   92  A    between atoms: _222  and  _225
REMARK   93  A    between atoms: _225  and  _226
REMARK   94  A    between atoms: _229  and  _231
REMARK   95  A    between atoms: _231  and  _232
REMARK   96  A    between atoms: _234  and  _236
REMARK   97  A    between atoms: _236  and  _237
REMARK   98  A    between atoms: _236  and  _239
REMARK   99  A    between atoms: _239  and  _240
REMARK  100  A    between atoms: _240  and  _241
REMARK  101  A    between atoms: _241  and  _242
REMARK  102  A    between atoms: _251  and  _253
REMARK  103  A    between atoms: _253  and  _254
REMARK  104  A    between atoms: _253  and  _256
REMARK  105  A    between atoms: _256  and  _257
REMARK  106  A    between atoms: _257  and  _258
REMARK  107  A    between atoms: _258  and  _259
REMARK  108  A    between atoms: _268  and  _270
REMARK  109  A    between atoms: _270  and  _271
REMARK  110  A    between atoms: _270  and  _273
REMARK  111  A    between atoms: _273  and  _274
REMARK  112  A    between atoms: _277  and  _279
REMARK  113  A    between atoms: _279  and  _280
REMARK  114  A    between atoms: _279  and  _282
REMARK  115  A    between atoms: _282  and  _283
REMARK  116  A    between atoms: _286  and  _288
REMARK  117  A    between atoms: _288  and  _289
REMARK  118  A    between atoms: _288  and  _291
REMARK  119  A    between atoms: _291  and  _292
REMARK  120  A    between atoms: _295  and  _297
REMARK  121  A    between atoms: _297  and  _298
REMARK  122  A    between atoms: _297  and  _300
REMARK  123  A    between atoms: _300  and  _301
REMARK  124  A    between atoms: _304  and  _306
REMARK  125  A    between atoms: _306  and  _307
REMARK  126  A    between atoms: _306  and  _309
REMARK  127  A    between atoms: _309  and  _310
REMARK  128  A    between atoms: _313  and  _315
REMARK  129  A    between atoms: _315  and  _316
REMARK  130  A    between atoms: _318  and  _320
REMARK  131  A    between atoms: _320  and  _321
REMARK  132  A    between atoms: _324  and  _326
REMARK  133  A    between atoms: _326  and  _327
REMARK  134  A    between atoms: _326  and  _329
REMARK  135  A    between atoms: _329  and  _330
REMARK  136  A    between atoms: _333  and  _335
REMARK  137  A    between atoms: _335  and  _336
REMARK  138  A    between atoms: _335  and  _338
REMARK  139  A    between atoms: _338  and  _339
REMARK  140  A    between atoms: _342  and  _344
REMARK  141  A    between atoms: _344  and  _345
REMARK  142  A    between atoms: _344  and  _347
REMARK  143  A    between atoms: _347  and  _348
REMARK  144  A    between atoms: _350  and  _352
REMARK  145  A    between atoms: _352  and  _353
REMARK  146  A    between atoms: _352  and  _355
REMARK  147  A    between atoms: _358  and  _360
REMARK  148  A    between atoms: _360  and  _361
REMARK  149  A    between atoms: _360  and  _363
REMARK  150  A    between atoms: _363  and  _364
REMARK  151  A    between atoms: _367  and  _369
REMARK  152  A    between atoms: _369  and  _370
REMARK  153  A    between atoms: _372  and  _374
REMARK  154  A    between atoms: _374  and  _375
REMARK  155  A    between atoms: _374  and  _377
REMARK  156  A    between atoms: _377  and  _378
REMARK  157  A    between atoms: _381  and  _383
REMARK  158  A    between atoms: _383  and  _384
REMARK  159  A    between atoms: _386  and  _388
REMARK  160  A    between atoms: _388  and  _389
REMARK  161  A    between atoms: _391  and  _393
REMARK  162  A    between atoms: _393  and  _394
REMARK  163  A    between atoms: _393  and  _396
REMARK  164  A    between atoms: _399  and  _401
REMARK  165  A    between atoms: _401  and  _402
REMARK  166  A    between atoms: _404  and  _406
REMARK  167  A    between atoms: _406  and  _407
REMARK  168  A    between atoms: _409  and  _411
REMARK  169  A    between atoms: _411  and  _412
REMARK  170  A    between atoms: _411  and  _414
REMARK  171  A    between atoms: _414  and  _415
REMARK  172  A    between atoms: _420  and  _422
REMARK  173  A    between atoms: _422  and  _423
REMARK  174  A    between atoms: _422  and  _425
REMARK  175  A    between atoms: _428  and  _430
REMARK  176  A    between atoms: _430  and  _431
REMARK  177  A    between atoms: _430  and  _433
REMARK  178  A    between atoms: _433  and  _434
REMARK  179  A    between atoms: _437  and  _439
REMARK  180  A    between atoms: _439  and  _440
REMARK  181  A    between atoms: _439  and  _442
REMARK  182  A    between atoms: _442  and  _443
REMARK  183  A    between atoms: _446  and  _448
REMARK  184  A    between atoms: _448  and  _449
REMARK  185  A    between atoms: _448  and  _451
REMARK  186  A    between atoms: _451  and  _452
REMARK  187  A    between atoms: _456  and  _457
REMARK  188  A    between atoms: _462  and  _464
REMARK  189  A    between atoms: _464  and  _465
REMARK  190  A    between atoms: _464  and  _467
REMARK  191  A    between atoms: _470  and  _472
REMARK  192  A    between atoms: _472  and  _473
REMARK  193  A    between atoms: _472  and  _475
REMARK  194  A    between atoms: _475  and  _476
REMARK  195  A    between atoms: _479  and  _481
REMARK  196  A    between atoms: _481  and  _482
REMARK  197  A    between atoms: _481  and  _484
REMARK  198  A    between atoms: _484  and  _485
REMARK  199  A    between atoms: _488  and  _490
REMARK  200  A    between atoms: _490  and  _491
REMARK  201  A    between atoms: _493  and  _495
REMARK  202  A    between atoms: _495  and  _496
REMARK  203  A    between atoms: _495  and  _498
REMARK  204  A    between atoms: _498  and  _499
REMARK  205  A    between atoms: _499  and  _500
REMARK  206  A    between atoms: _500  and  _501
REMARK                            x       y       z     vdW  Elec       q    Type
REMARK                         _______ _______ _______ _____ _____    ______ ____
ROOT
ATOM      1  O   HOH     1       8.700  26.758   4.848  0.00  0.00    +0.000 OA
ENDROOT
TORSDOF 0
REMARK  Name = ../refined-set-2016/2fmb/2fmb_pocket.pdb
REMARK  206 active torsions:
REMARK  status: ('A' for Active; 'I' for Inactive)
REMARK    1  A    between atoms: _1  and  _3
REMARK    2  A    between atoms: _3  and  _4
REMARK    3  A    between atoms: _3  and  _6
REMARK    4  A    between atoms: _6  and  _7
REMARK    5  A    between atoms: _7  and  _8
REMARK    6  A    between atoms: _8  and  _9
REMARK    7  A    between atoms: _18  and  _20
REMARK    8  A    between atoms: _20  and  _21
REMARK    9  A    between atoms: _20  and  _23
REMARK   10  A    between atoms: _23  and  _24
REMARK   11  A    between atoms: _27  and  _29
REMARK   12  A    between atoms: _29  and  _30
REMARK   13  A    between atoms: _29  and  _32
REMARK   14  A    between atoms: _32  and  _33
REMARK   15  A    between atoms: _36  and  _38
REMARK   16  A    between atoms: _38  and  _39
REMARK   17  A    between atoms: _38  and  _41
REMARK   18  A    between atoms: _41  and  _42
REMARK   19  A    between atoms: _45  and  _47
REMARK   20  A    between atoms: _47  and  _48
REMARK   21  A    between atoms: _47  and  _50
REMARK   22  A    between atoms: _50  and  _51
REMARK   23  A    between atoms: _54  and  _56
REMARK   24  A    between atoms: _56  and  _57
REMARK   25  A    between atoms: _59  and  _61
REMARK   26  A    between atoms: _61  and  _62
REMARK   27  A    between atoms: _65  and  _67
REMARK   28  A    between atoms: _67  and  _68
REMARK   29  A    between atoms: _67  and  _70
REMARK   30  A    between atoms: _70  and  _71
REMARK   31  A    between atoms: _74  and  _76
REMARK   32  A    between atoms: _76  and  _77
REMARK   33  A    between atoms: _76  and  _79
REMARK   34  A    between atoms: _79  and  _80
REMARK   35  A    between atoms: _83  and  _85
REMARK   36  A    between atoms: _85  and  _86
REMARK   37  A    between atoms: _85  and  _88
REMARK   38  A    between atoms: _88  and  _89
REMARK   39  A    between atoms: _91  and  _93
REMARK   40  A    between atoms: _93  and  _94
REMARK   41  A    between atoms: _93  and  _96
REMARK   42  A    between atoms: _99  and  _101
REMARK   43  A    between atoms: _101  and  _102
REMARK   44  A    between atoms: _101  and  _104
REMARK   45  A    between atoms: _104  and  _105
REMARK   46  A    between atoms: _108  and  _110
REMARK   47  A    between atoms: _110  and  _111
REMARK   48  A    between atoms: _113  and  _115
REMARK   49  A    between atoms: _115  and  _116
REMARK   50  A    between atoms: _115  and  _118
REMARK   51  A    between atoms: _118  and  _119
REMARK   52  A    between atoms: _122  and  _124
REMARK   53  A    between atoms: _124  and  _125
REMARK   54  A    between atoms: _127  and  _129
REMARK   55  A    between atoms: _129  and  _130
REMARK   56  A    between atoms: _132  and  _134
REMARK   57  A    between atoms: _134  and  _135
REMARK   58  A    between atoms: _134  and  _137
REMARK   59  A    between atoms: _140  and  _142
REMARK   60  A    between atoms: _142  and  _143
REMARK   61  A    between atoms: _145  and  _147
REMARK   62  A    between atoms: _147  and  _148
REMARK   63  A    between atoms: _150  and  _152
REMARK   64  A    between atoms: _152  and  _153
REMARK   65  A    between atoms: _152  and  _155
REMARK   66  A    between atoms: _155  and  _156
REMARK   67  A    between atoms: _161  and  _163
REMARK   68  A    between atoms: _163  and  _164
REMARK   69  A    between atoms: _163  and  _166
REMARK   70  A    between atoms: _169  and  _171
REMARK   71  A    between atoms: _171  and  _172
REMARK   72  A    between atoms: _171  and  _174
REMARK   73  A    between atoms: _174  and  _175
REMARK   74  A    between atoms: _178  and  _180
REMARK   75  A    between atoms: _180  and  _181
REMARK   76  A    between atoms: _180  and  _183
REMARK   77  A    between atoms: _183  and  _184
REMARK   78  A    between atoms: _188  and  _189
REMARK   79  A    between atoms: _194  and  _196
REMARK   80  A    between atoms: _196  and  _197
REMARK   81  A    between atoms: _196  and  _199
REMARK   82  A    between atoms: _202  and  _204
REMARK   83  A    between atoms: _204  and  _205
REMARK   84  A    between atoms: _204  and  _207
REMARK   85  A    between atoms: _207  and  _208
REMARK   86  A    between atoms: _211  and  _213
REMARK   87  A    between atoms: _213  and  _214
REMARK   88  A    between atoms: _213  and  _216
REMARK   89  A    between atoms: _216  and  _217
REMARK   90  A    between atoms: _220  and  _222
REMARK   91  A    between atoms: _222  and  _223
REMARK   92  A    between atoms: _222  and  _225
REMARK   93  A    between atoms: _225  and  _226
REMARK   94  A    between atoms: _229  and  _231
REMARK   95  A    between atoms: _231  and  _232
REMARK   96  A    between atoms: _234  and  _236
REMARK   97  A    between atoms: _236  and  _237
REMARK   98  A    between atoms: _236  and  _239
REMARK   99  A    between atoms: _239  and  _240
REMARK  100  A    between atoms: _240  and  _241
REMARK  101  A    between atoms: _241  and  _242
REMARK  102  A    between atoms: _251  and  _253
REMARK  103  A    between atoms: _253  and  _254
REMARK  104  A    between atoms: _253  and  _256
REMARK  105  A    between atoms: _256  and  _257
REMARK  106  A    between atoms: _257  and  _258
REMARK  107  A    between atoms: _258  and  _259
REMARK  108  A    between atoms: _268  and  _270
REMARK  109  A    between atoms: _270  and  _271
REMARK  110  A    between atoms: _270  and  _273
REMARK  111  A    between atoms: _273  and  _274
REMARK  112  A    between atoms: _277  and  _279
REMARK  113  A    between atoms: _279  and  _280
REMARK  114  A    between atoms: _279  and  _282
REMARK  115  A    between atoms: _282  and  _283
REMARK  116  A    between atoms: _286  and  _288
REMARK  117  A    between atoms: _288  and  _289
REMARK  118  A    between atoms: _288  and  _291
REMARK  119  A    between atoms: _291  and  _292
REMARK  120  A    between atoms: _295  and  _297
REMARK  121  A    between atoms: _297  and  _298
REMARK  122  A    between atoms: _297  and  _300
REMARK  123  A    between atoms: _300  and  _301
REMARK  124  A    between atoms: _304  and  _306
REMARK  125  A    between atoms: _306  and  _307
REMARK  126  A    between atoms: _306  and  _309
REMARK  127  A    between atoms: _309  and  _310
REMARK  128  A    between atoms: _313  and  _315
REMARK  129  A    between atoms: _315  and  _316
REMARK  130  A    between atoms: _318  and  _320
REMARK  131  A    between atoms: _320  and  _321
REMARK  132  A    between atoms: _324  and  _326
REMARK  133  A    between atoms: _326  and  _327
REMARK  134  A    between atoms: _326  and  _329
REMARK  135  A    between atoms: _329  and  _330
REMARK  136  A    between atoms: _333  and  _335
REMARK  137  A    between atoms: _335  and  _336
REMARK  138  A    between atoms: _335  and  _338
REMARK  139  A    between atoms: _338  and  _339
REMARK  140  A    between atoms: _342  and  _344
REMARK  141  A    between atoms: _344  and  _345
REMARK  142  A    between atoms: _344  and  _347
REMARK  143  A    between atoms: _347  and  _348
REMARK  144  A    between atoms: _350  and  _352
REMARK  145  A    between atoms: _352  and  _353
REMARK  146  A    between atoms: _352  and  _355
REMARK  147  A    between atoms: _358  and  _360
REMARK  148  A    between atoms: _360  and  _361
REMARK  149  A    between atoms: _360  and  _363
REMARK  150  A    between atoms: _363  and  _364
REMARK  151  A    between atoms: _367  and  _369
REMARK  152  A    between atoms: _369  and  _370
REMARK  153  A    between atoms: _372  and  _374
REMARK  154  A    between atoms: _374  and  _375
REMARK  155  A    between atoms: _374  and  _377
REMARK  156  A    between atoms: _377  and  _378
REMARK  157  A    between atoms: _381  and  _383
REMARK  158  A    between atoms: _383  and  _384
REMARK  159  A    between atoms: _386  and  _388
REMARK  160  A    between atoms: _388  and  _389
REMARK  161  A    between atoms: _391  and  _393
REMARK  162  A    between atoms: _393  and  _394
REMARK  163  A    between atoms: _393  and  _396
REMARK  164  A    between atoms: _399  and  _401
REMARK  165  A    between atoms: _401  and  _402
REMARK  166  A    between atoms: _404  and  _406
REMARK  167  A    between atoms: _406  and  _407
REMARK  168  A    between atoms: _409  and  _411
REMARK  169  A    between atoms: _411  and  _412
REMARK  170  A    between atoms: _411  and  _414
REMARK  171  A    between atoms: _414  and  _415
REMARK  172  A    between atoms: _420  and  _422
REMARK  173  A    between atoms: _422  and  _423
REMARK  174  A    between atoms: _422  and  _425
REMARK  175  A    between atoms: _428  and  _430
REMARK  176  A    between atoms: _430  and  _431
REMARK  177  A    between atoms: _430  and  _433
REMARK  178  A    between atoms: _433  and  _434
REMARK  179  A    between atoms: _437  and  _439
REMARK  180  A    between atoms: _439  and  _440
REMARK  181  A    between atoms: _439  and  _442
REMARK  182  A    between atoms: _442  and  _443
REMARK  183  A    between atoms: _446  and  _448
REMARK  184  A    between atoms: _448  and  _449
REMARK  185  A    between atoms: _448  and  _451
REMARK  186  A    between atoms: _451  and  _452
REMARK  187  A    between atoms: _456  and  _457
REMARK  188  A    between atoms: _462  and  _464
REMARK  189  A    between atoms: _464  and  _465
REMARK  190  A    between atoms: _464  and  _467
REMARK  191  A    between atoms: _470  and  _472
REMARK  192  A    between atoms: _472  and  _473
REMARK  193  A    between atoms: _472  and  _475
REMARK  194  A    between atoms: _475  and  _476
REMARK  195  A    between atoms: _479  and  _481
REMARK  196  A    between atoms: _481  and  _482
REMARK  197  A    between atoms: _481  and  _484
REMARK  198  A    between atoms: _484  and  _485
REMARK  199  A    between atoms: _488  and  _490
REMARK  200  A    between atoms: _490  and  _491
REMARK  201  A    between atoms: _493  and  _495
REMARK  202  A    between atoms: _495  and  _496
REMARK  203  A    between atoms: _495  and  _498
REMARK  204  A    between atoms: _498  and  _499
REMARK  205  A    between atoms: _499  and  _500
REMARK  206  A    between atoms: _500  and  _501
REMARK                            x       y       z     vdW  Elec       q    Type
REMARK                         _______ _______ _______ _____ _____    ______ ____
ROOT
ATOM      1  O   HOH     1       7.696  26.772   2.148  0.00  0.00    +0.000 OA
ENDROOT
TORSDOF 0
REMARK  Name = ../refined-set-2016/2fmb/2fmb_pocket.pdb
REMARK  206 active torsions:
REMARK  status: ('A' for Active; 'I' for Inactive)
REMARK    1  A    between atoms: _1  and  _3
REMARK    2  A    between atoms: _3  and  _4
REMARK    3  A    between atoms: _3  and  _6
REMARK    4  A    between atoms: _6  and  _7
REMARK    5  A    between atoms: _7  and  _8
REMARK    6  A    between atoms: _8  and  _9
REMARK    7  A    between atoms: _18  and  _20
REMARK    8  A    between atoms: _20  and  _21
REMARK    9  A    between atoms: _20  and  _23
REMARK   10  A    between atoms: _23  and  _24
REMARK   11  A    between atoms: _27  and  _29
REMARK   12  A    between atoms: _29  and  _30
REMARK   13  A    between atoms: _29  and  _32
REMARK   14  A    between atoms: _32  and  _33
REMARK   15  A    between atoms: _36  and  _38
REMARK   16  A    between atoms: _38  and  _39
REMARK   17  A    between atoms: _38  and  _41
REMARK   18  A    between atoms: _41  and  _42
REMARK   19  A    between atoms: _45  and  _47
REMARK   20  A    between atoms: _47  and  _48
REMARK   21  A    between atoms: _47  and  _50
REMARK   22  A    between atoms: _50  and  _51
REMARK   23  A    between atoms: _54  and  _56
REMARK   24  A    between atoms: _56  and  _57
REMARK   25  A    between atoms: _59  and  _61
REMARK   26  A    between atoms: _61  and  _62
REMARK   27  A    between atoms: _65  and  _67
REMARK   28  A    between atoms: _67  and  _68
REMARK   29  A    between atoms: _67  and  _70
REMARK   30  A    between atoms: _70  and  _71
REMARK   31  A    between atoms: _74  and  _76
REMARK   32  A    between atoms: _76  and  _77
REMARK   33  A    between atoms: _76  and  _79
REMARK   34  A    between atoms: _79  and  _80
REMARK   35  A    between atoms: _83  and  _85
REMARK   36  A    between atoms: _85  and  _86
REMARK   37  A    between atoms: _85  and  _88
REMARK   38  A    between atoms: _88  and  _89
REMARK   39  A    between atoms: _91  and  _93
REMARK   40  A    between atoms: _93  and  _94
REMARK   41  A    between atoms: _93  and  _96
REMARK   42  A    between atoms: _99  and  _101
REMARK   43  A    between atoms: _101  and  _102
REMARK   44  A    between atoms: _101  and  _104
REMARK   45  A    between atoms: _104  and  _105
REMARK   46  A    between atoms: _108  and  _110
REMARK   47  A    between atoms: _110  and  _111
REMARK   48  A    between atoms: _113  and  _115
REMARK   49  A    between atoms: _115  and  _116
REMARK   50  A    between atoms: _115  and  _118
REMARK   51  A    between atoms: _118  and  _119
REMARK   52  A    between atoms: _122  and  _124
REMARK   53  A    between atoms: _124  and  _125
REMARK   54  A    between atoms: _127  and  _129
REMARK   55  A    between atoms: _129  and  _130
REMARK   56  A    between atoms: _132  and  _134
REMARK   57  A    between atoms: _134  and  _135
REMARK   58  A    between atoms: _134  and  _137
REMARK   59  A    between atoms: _140  and  _142
REMARK   60  A    between atoms: _142  and  _143
REMARK   61  A    between atoms: _145  and  _147
REMARK   62  A    between atoms: _147  and  _148
REMARK   63  A    between atoms: _150  and  _152
REMARK   64  A    between atoms: _152  and  _153
REMARK   65  A    between atoms: _152  and  _155
REMARK   66  A    between atoms: _155  and  _156
REMARK   67  A    between atoms: _161  and  _163
REMARK   68  A    between atoms: _163  and  _164
REMARK   69  A    between atoms: _163  and  _166
REMARK   70  A    between atoms: _169  and  _171
REMARK   71  A    between atoms: _171  and  _172
REMARK   72  A    between atoms: _171  and  _174
REMARK   73  A    between atoms: _174  and  _175
REMARK   74  A    between atoms: _178  and  _180
REMARK   75  A    between atoms: _180  and  _181
REMARK   76  A    between atoms: _180  and  _183
REMARK   77  A    between atoms: _183  and  _184
REMARK   78  A    between atoms: _188  and  _189
REMARK   79  A    between atoms: _194  and  _196
REMARK   80  A    between atoms: _196  and  _197
REMARK   81  A    between atoms: _196  and  _199
REMARK   82  A    between atoms: _202  and  _204
REMARK   83  A    between atoms: _204  and  _205
REMARK   84  A    between atoms: _204  and  _207
REMARK   85  A    between atoms: _207  and  _208
REMARK   86  A    between atoms: _211  and  _213
REMARK   87  A    between atoms: _213  and  _214
REMARK   88  A    between atoms: _213  and  _216
REMARK   89  A    between atoms: _216  and  _217
REMARK   90  A    between atoms: _220  and  _222
REMARK   91  A    between atoms: _222  and  _223
REMARK   92  A    between atoms: _222  and  _225
REMARK   93  A    between atoms: _225  and  _226
REMARK   94  A    between atoms: _229  and  _231
REMARK   95  A    between atoms: _231  and  _232
REMARK   96  A    between atoms: _234  and  _236
REMARK   97  A    between atoms: _236  and  _237
REMARK   98  A    between atoms: _236  and  _239
REMARK   99  A    between atoms: _239  and  _240
REMARK  100  A    between atoms: _240  and  _241
REMARK  101  A    between atoms: _241  and  _242
REMARK  102  A    between atoms: _251  and  _253
REMARK  103  A    between atoms: _253  and  _254
REMARK  104  A    between atoms: _253  and  _256
REMARK  105  A    between atoms: _256  and  _257
REMARK  106  A    between atoms: _257  and  _258
REMARK  107  A    between atoms: _258  and  _259
REMARK  108  A    between atoms: _268  and  _270
REMARK  109  A    between atoms: _270  and  _271
REMARK  110  A    between atoms: _270  and  _273
REMARK  111  A    between atoms: _273  and  _274
REMARK  112  A    between atoms: _277  and  _279
REMARK  113  A    between atoms: _279  and  _280
REMARK  114  A    between atoms: _279  and  _282
REMARK  115  A    between atoms: _282  and  _283
REMARK  116  A    between atoms: _286  and  _288
REMARK  117  A    between atoms: _288  and  _289
REMARK  118  A    between atoms: _288  and  _291
REMARK  119  A    between atoms: _291  and  _292
REMARK  120  A    between atoms: _295  and  _297
REMARK  121  A    between atoms: _297  and  _298
REMARK  122  A    between atoms: _297  and  _300
REMARK  123  A    between atoms: _300  and  _301
REMARK  124  A    between atoms: _304  and  _306
REMARK  125  A    between atoms: _306  and  _307
REMARK  126  A    between atoms: _306  and  _309
REMARK  127  A    between atoms: _309  and  _310
REMARK  128  A    between atoms: _313  and  _315
REMARK  129  A    between atoms: _315  and  _316
REMARK  130  A    between atoms: _318  and  _320
REMARK  131  A    between atoms: _320  and  _321
REMARK  132  A    between atoms: _324  and  _326
REMARK  133  A    between atoms: _326  and  _327
REMARK  134  A    between atoms: _326  and  _329
REMARK  135  A    between atoms: _329  and  _330
REMARK  136  A    between atoms: _333  and  _335
REMARK  137  A    between atoms: _335  and  _336
REMARK  138  A    between atoms: _335  and  _338
REMARK  139  A    between atoms: _338  and  _339
REMARK  140  A    between atoms: _342  and  _344
REMARK  141  A    between atoms: _344  and  _345
REMARK  142  A    between atoms: _344  and  _347
REMARK  143  A    between atoms: _347  and  _348
REMARK  144  A    between atoms: _350  and  _352
REMARK  145  A    between atoms: _352  and  _353
REMARK  146  A    between atoms: _352  and  _355
REMARK  147  A    between atoms: _358  and  _360
REMARK  148  A    between atoms: _360  and  _361
REMARK  149  A    between atoms: _360  and  _363
REMARK  150  A    between atoms: _363  and  _364
REMARK  151  A    between atoms: _367  and  _369
REMARK  152  A    between atoms: _369  and  _370
REMARK  153  A    between atoms: _372  and  _374
REMARK  154  A    between atoms: _374  and  _375
REMARK  155  A    between atoms: _374  and  _377
REMARK  156  A    between atoms: _377  and  _378
REMARK  157  A    between atoms: _381  and  _383
REMARK  158  A    between atoms: _383  and  _384
REMARK  159  A    between atoms: _386  and  _388
REMARK  160  A    between atoms: _388  and  _389
REMARK  161  A    between atoms: _391  and  _393
REMARK  162  A    between atoms: _393  and  _394
REMARK  163  A    between atoms: _393  and  _396
REMARK  164  A    between atoms: _399  and  _401
REMARK  165  A    between atoms: _401  and  _402
REMARK  166  A    between atoms: _404  and  _406
REMARK  167  A    between atoms: _406  and  _407
REMARK  168  A    between atoms: _409  and  _411
REMARK  169  A    between atoms: _411  and  _412
REMARK  170  A    between atoms: _411  and  _414
REMARK  171  A    between atoms: _414  and  _415
REMARK  172  A    between atoms: _420  and  _422
REMARK  173  A    between atoms: _422  and  _423
REMARK  174  A    between atoms: _422  and  _425
REMARK  175  A    between atoms: _428  and  _430
REMARK  176  A    between atoms: _430  and  _431
REMARK  177  A    between atoms: _430  and  _433
REMARK  178  A    between atoms: _433  and  _434
REMARK  179  A    between atoms: _437  and  _439
REMARK  180  A    between atoms: _439  and  _440
REMARK  181  A    between atoms: _439  and  _442
REMARK  182  A    between atoms: _442  and  _443
REMARK  183  A    between atoms: _446  and  _448
REMARK  184  A    between atoms: _448  and  _449
REMARK  185  A    between atoms: _448  and  _451
REMARK  186  A    between atoms: _451  and  _452
REMARK  187  A    between atoms: _456  and  _457
REMARK  188  A    between atoms: _462  and  _464
REMARK  189  A    between atoms: _464  and  _465
REMARK  190  A    between atoms: _464  and  _467
REMARK  191  A    between atoms: _470  and  _472
REMARK  192  A    between atoms: _472  and  _473
REMARK  193  A    between atoms: _472  and  _475
REMARK  194  A    between atoms: _475  and  _476
REMARK  195  A    between atoms: _479  and  _481
REMARK  196  A    between atoms: _481  and  _482
REMARK  197  A    between atoms: _481  and  _484
REMARK  198  A    between atoms: _484  and  _485
REMARK  199  A    between atoms: _488  and  _490
REMARK  200  A    between atoms: _490  and  _491
REMARK  201  A    between atoms: _493  and  _495
REMARK  202  A    between atoms: _495  and  _496
REMARK  203  A    between atoms: _495  and  _498
REMARK  204  A    between atoms: _498  and  _499
REMARK  205  A    between atoms: _499  and  _500
REMARK  206  A    between atoms: _500  and  _501
REMARK                            x       y       z     vdW  Elec       q    Type
REMARK                         _______ _______ _______ _____ _____    ______ ____
ROOT
ATOM      1  O   HOH     1       4.820  23.959  13.642  0.00  0.00    +0.000 OA
ENDROOT
TORSDOF 0
REMARK  Name = ../refined-set-2016/2fmb/2fmb_pocket.pdb
REMARK  206 active torsions:
REMARK  status: ('A' for Active; 'I' for Inactive)
REMARK    1  A    between atoms: _1  and  _3
REMARK    2  A    between atoms: _3  and  _4
REMARK    3  A    between atoms: _3  and  _6
REMARK    4  A    between atoms: _6  and  _7
REMARK    5  A    between atoms: _7  and  _8
REMARK    6  A    between atoms: _8  and  _9
REMARK    7  A    between atoms: _18  and  _20
REMARK    8  A    between atoms: _20  and  _21
REMARK    9  A    between atoms: _20  and  _23
REMARK   10  A    between atoms: _23  and  _24
REMARK   11  A    between atoms: _27  and  _29
REMARK   12  A    between atoms: _29  and  _30
REMARK   13  A    between atoms: _29  and  _32
REMARK   14  A    between atoms: _32  and  _33
REMARK   15  A    between atoms: _36  and  _38
REMARK   16  A    between atoms: _38  and  _39
REMARK   17  A    between atoms: _38  and  _41
REMARK   18  A    between atoms: _41  and  _42
REMARK   19  A    between atoms: _45  and  _47
REMARK   20  A    between atoms: _47  and  _48
REMARK   21  A    between atoms: _47  and  _50
REMARK   22  A    between atoms: _50  and  _51
REMARK   23  A    between atoms: _54  and  _56
REMARK   24  A    between atoms: _56  and  _57
REMARK   25  A    between atoms: _59  and  _61
REMARK   26  A    between atoms: _61  and  _62
REMARK   27  A    between atoms: _65  and  _67
REMARK   28  A    between atoms: _67  and  _68
REMARK   29  A    between atoms: _67  and  _70
REMARK   30  A    between atoms: _70  and  _71
REMARK   31  A    between atoms: _74  and  _76
REMARK   32  A    between atoms: _76  and  _77
REMARK   33  A    between atoms: _76  and  _79
REMARK   34  A    between atoms: _79  and  _80
REMARK   35  A    between atoms: _83  and  _85
REMARK   36  A    between atoms: _85  and  _86
REMARK   37  A    between atoms: _85  and  _88
REMARK   38  A    between atoms: _88  and  _89
REMARK   39  A    between atoms: _91  and  _93
REMARK   40  A    between atoms: _93  and  _94
REMARK   41  A    between atoms: _93  and  _96
REMARK   42  A    between atoms: _99  and  _101
REMARK   43  A    between atoms: _101  and  _102
REMARK   44  A    between atoms: _101  and  _104
REMARK   45  A    between atoms: _104  and  _105
REMARK   46  A    between atoms: _108  and  _110
REMARK   47  A    between atoms: _110  and  _111
REMARK   48  A    between atoms: _113  and  _115
REMARK   49  A    between atoms: _115  and  _116
REMARK   50  A    between atoms: _115  and  _118
REMARK   51  A    between atoms: _118  and  _119
REMARK   52  A    between atoms: _122  and  _124
REMARK   53  A    between atoms: _124  and  _125
REMARK   54  A    between atoms: _127  and  _129
REMARK   55  A    between atoms: _129  and  _130
REMARK   56  A    between atoms: _132  and  _134
REMARK   57  A    between atoms: _134  and  _135
REMARK   58  A    between atoms: _134  and  _137
REMARK   59  A    between atoms: _140  and  _142
REMARK   60  A    between atoms: _142  and  _143
REMARK   61  A    between atoms: _145  and  _147
REMARK   62  A    between atoms: _147  and  _148
REMARK   63  A    between atoms: _150  and  _152
REMARK   64  A    between atoms: _152  and  _153
REMARK   65  A    between atoms: _152  and  _155
REMARK   66  A    between atoms: _155  and  _156
REMARK   67  A    between atoms: _161  and  _163
REMARK   68  A    between atoms: _163  and  _164
REMARK   69  A    between atoms: _163  and  _166
REMARK   70  A    between atoms: _169  and  _171
REMARK   71  A    between atoms: _171  and  _172
REMARK   72  A    between atoms: _171  and  _174
REMARK   73  A    between atoms: _174  and  _175
REMARK   74  A    between atoms: _178  and  _180
REMARK   75  A    between atoms: _180  and  _181
REMARK   76  A    between atoms: _180  and  _183
REMARK   77  A    between atoms: _183  and  _184
REMARK   78  A    between atoms: _188  and  _189
REMARK   79  A    between atoms: _194  and  _196
REMARK   80  A    between atoms: _196  and  _197
REMARK   81  A    between atoms: _196  and  _199
REMARK   82  A    between atoms: _202  and  _204
REMARK   83  A    between atoms: _204  and  _205
REMARK   84  A    between atoms: _204  and  _207
REMARK   85  A    between atoms: _207  and  _208
REMARK   86  A    between atoms: _211  and  _213
REMARK   87  A    between atoms: _213  and  _214
REMARK   88  A    between atoms: _213  and  _216
REMARK   89  A    between atoms: _216  and  _217
REMARK   90  A    between atoms: _220  and  _222
REMARK   91  A    between atoms: _222  and  _223
REMARK   92  A    between atoms: _222  and  _225
REMARK   93  A    between atoms: _225  and  _226
REMARK   94  A    between atoms: _229  and  _231
REMARK   95  A    between atoms: _231  and  _232
REMARK   96  A    between atoms: _234  and  _236
REMARK   97  A    between atoms: _236  and  _237
REMARK   98  A    between atoms: _236  and  _239
REMARK   99  A    between atoms: _239  and  _240
REMARK  100  A    between atoms: _240  and  _241
REMARK  101  A    between atoms: _241  and  _242
REMARK  102  A    between atoms: _251  and  _253
REMARK  103  A    between atoms: _253  and  _254
REMARK  104  A    between atoms: _253  and  _256
REMARK  105  A    between atoms: _256  and  _257
REMARK  106  A    between atoms: _257  and  _258
REMARK  107  A    between atoms: _258  and  _259
REMARK  108  A    between atoms: _268  and  _270
REMARK  109  A    between atoms: _270  and  _271
REMARK  110  A    between atoms: _270  and  _273
REMARK  111  A    between atoms: _273  and  _274
REMARK  112  A    between atoms: _277  and  _279
REMARK  113  A    between atoms: _279  and  _280
REMARK  114  A    between atoms: _279  and  _282
REMARK  115  A    between atoms: _282  and  _283
REMARK  116  A    between atoms: _286  and  _288
REMARK  117  A    between atoms: _288  and  _289
REMARK  118  A    between atoms: _288  and  _291
REMARK  119  A    between atoms: _291  and  _292
REMARK  120  A    between atoms: _295  and  _297
REMARK  121  A    between atoms: _297  and  _298
REMARK  122  A    between atoms: _297  and  _300
REMARK  123  A    between atoms: _300  and  _301
REMARK  124  A    between atoms: _304  and  _306
REMARK  125  A    between atoms: _306  and  _307
REMARK  126  A    between atoms: _306  and  _309
REMARK  127  A    between atoms: _309  and  _310
REMARK  128  A    between atoms: _313  and  _315
REMARK  129  A    between atoms: _315  and  _316
REMARK  130  A    between atoms: _318  and  _320
REMARK  131  A    between atoms: _320  and  _321
REMARK  132  A    between atoms: _324  and  _326
REMARK  133  A    between atoms: _326  and  _327
REMARK  134  A    between atoms: _326  and  _329
REMARK  135  A    between atoms: _329  and  _330
REMARK  136  A    between atoms: _333  and  _335
REMARK  137  A    between atoms: _335  and  _336
REMARK  138  A    between atoms: _335  and  _338
REMARK  139  A    between atoms: _338  and  _339
REMARK  140  A    between atoms: _342  and  _344
REMARK  141  A    between atoms: _344  and  _345
REMARK  142  A    between atoms: _344  and  _347
REMARK  143  A    between atoms: _347  and  _348
REMARK  144  A    between atoms: _350  and  _352
REMARK  145  A    between atoms: _352  and  _353
REMARK  146  A    between atoms: _352  and  _355
REMARK  147  A    between atoms: _358  and  _360
REMARK  148  A    between atoms: _360  and  _361
REMARK  149  A    between atoms: _360  and  _363
REMARK  150  A    between atoms: _363  and  _364
REMARK  151  A    between atoms: _367  and  _369
REMARK  152  A    between atoms: _369  and  _370
REMARK  153  A    between atoms: _372  and  _374
REMARK  154  A    between atoms: _374  and  _375
REMARK  155  A    between atoms: _374  and  _377
REMARK  156  A    between atoms: _377  and  _378
REMARK  157  A    between atoms: _381  and  _383
REMARK  158  A    between atoms: _383  and  _384
REMARK  159  A    between atoms: _386  and  _388
REMARK  160  A    between atoms: _388  and  _389
REMARK  161  A    between atoms: _391  and  _393
REMARK  162  A    between atoms: _393  and  _394
REMARK  163  A    between atoms: _393  and  _396
REMARK  164  A    between atoms: _399  and  _401
REMARK  165  A    between atoms: _401  and  _402
REMARK  166  A    between atoms: _404  and  _406
REMARK  167  A    between atoms: _406  and  _407
REMARK  168  A    between atoms: _409  and  _411
REMARK  169  A    between atoms: _411  and  _412
REMARK  170  A    between atoms: _411  and  _414
REMARK  171  A    between atoms: _414  and  _415
REMARK  172  A    between atoms: _420  and  _422
REMARK  173  A    between atoms: _422  and  _423
REMARK  174  A    between atoms: _422  and  _425
REMARK  175  A    between atoms: _428  and  _430
REMARK  176  A    between atoms: _430  and  _431
REMARK  177  A    between atoms: _430  and  _433
REMARK  178  A    between atoms: _433  and  _434
REMARK  179  A    between atoms: _437  and  _439
REMARK  180  A    between atoms: _439  and  _440
REMARK  181  A    between atoms: _439  and  _442
REMARK  182  A    between atoms: _442  and  _443
REMARK  183  A    between atoms: _446  and  _448
REMARK  184  A    between atoms: _448  and  _449
REMARK  185  A    between atoms: _448  and  _451
REMARK  186  A    between atoms: _451  and  _452
REMARK  187  A    between atoms: _456  and  _457
REMARK  188  A    between atoms: _462  and  _464
REMARK  189  A    between atoms: _464  and  _465
REMARK  190  A    between atoms: _464  and  _467
REMARK  191  A    between atoms: _470  and  _472
REMARK  192  A    between atoms: _472  and  _473
REMARK  193  A    between atoms: _472  and  _475
REMARK  194  A    between atoms: _475  and  _476
REMARK  195  A    between atoms: _479  and  _481
REMARK  196  A    between atoms: _481  and  _482
REMARK  197  A    between atoms: _481  and  _484
REMARK  198  A    between atoms: _484  and  _485
REMARK  199  A    between atoms: _488  and  _490
REMARK  200  A    between atoms: _490  and  _491
REMARK  201  A    between atoms: _493  and  _495
REMARK  202  A    between atoms: _495  and  _496
REMARK  203  A    between atoms: _495  and  _498
REMARK  204  A    between atoms: _498  and  _499
REMARK  205  A    between atoms: _499  and  _500
REMARK  206  A    between atoms: _500  and  _501
REMARK                            x       y       z     vdW  Elec       q    Type
REMARK                         _______ _______ _______ _____ _____    ______ ____
ROOT
ATOM      1  O   HOH     1       4.123  27.394  -4.121  0.00  0.00    +0.000 OA
ENDROOT
TORSDOF 0
REMARK  Name = ../refined-set-2016/2fmb/2fmb_pocket.pdb
REMARK  206 active torsions:
REMARK  status: ('A' for Active; 'I' for Inactive)
REMARK    1  A    between atoms: _1  and  _3
REMARK    2  A    between atoms: _3  and  _4
REMARK    3  A    between atoms: _3  and  _6
REMARK    4  A    between atoms: _6  and  _7
REMARK    5  A    between atoms: _7  and  _8
REMARK    6  A    between atoms: _8  and  _9
REMARK    7  A    between atoms: _18  and  _20
REMARK    8  A    between atoms: _20  and  _21
REMARK    9  A    between atoms: _20  and  _23
REMARK   10  A    between atoms: _23  and  _24
REMARK   11  A    between atoms: _27  and  _29
REMARK   12  A    between atoms: _29  and  _30
REMARK   13  A    between atoms: _29  and  _32
REMARK   14  A    between atoms: _32  and  _33
REMARK   15  A    between atoms: _36  and  _38
REMARK   16  A    between atoms: _38  and  _39
REMARK   17  A    between atoms: _38  and  _41
REMARK   18  A    between atoms: _41  and  _42
REMARK   19  A    between atoms: _45  and  _47
REMARK   20  A    between atoms: _47  and  _48
REMARK   21  A    between atoms: _47  and  _50
REMARK   22  A    between atoms: _50  and  _51
REMARK   23  A    between atoms: _54  and  _56
REMARK   24  A    between atoms: _56  and  _57
REMARK   25  A    between atoms: _59  and  _61
REMARK   26  A    between atoms: _61  and  _62
REMARK   27  A    between atoms: _65  and  _67
REMARK   28  A    between atoms: _67  and  _68
REMARK   29  A    between atoms: _67  and  _70
REMARK   30  A    between atoms: _70  and  _71
REMARK   31  A    between atoms: _74  and  _76
REMARK   32  A    between atoms: _76  and  _77
REMARK   33  A    between atoms: _76  and  _79
REMARK   34  A    between atoms: _79  and  _80
REMARK   35  A    between atoms: _83  and  _85
REMARK   36  A    between atoms: _85  and  _86
REMARK   37  A    between atoms: _85  and  _88
REMARK   38  A    between atoms: _88  and  _89
REMARK   39  A    between atoms: _91  and  _93
REMARK   40  A    between atoms: _93  and  _94
REMARK   41  A    between atoms: _93  and  _96
REMARK   42  A    between atoms: _99  and  _101
REMARK   43  A    between atoms: _101  and  _102
REMARK   44  A    between atoms: _101  and  _104
REMARK   45  A    between atoms: _104  and  _105
REMARK   46  A    between atoms: _108  and  _110
REMARK   47  A    between atoms: _110  and  _111
REMARK   48  A    between atoms: _113  and  _115
REMARK   49  A    between atoms: _115  and  _116
REMARK   50  A    between atoms: _115  and  _118
REMARK   51  A    between atoms: _118  and  _119
REMARK   52  A    between atoms: _122  and  _124
REMARK   53  A    between atoms: _124  and  _125
REMARK   54  A    between atoms: _127  and  _129
REMARK   55  A    between atoms: _129  and  _130
REMARK   56  A    between atoms: _132  and  _134
REMARK   57  A    between atoms: _134  and  _135
REMARK   58  A    between atoms: _134  and  _137
REMARK   59  A    between atoms: _140  and  _142
REMARK   60  A    between atoms: _142  and  _143
REMARK   61  A    between atoms: _145  and  _147
REMARK   62  A    between atoms: _147  and  _148
REMARK   63  A    between atoms: _150  and  _152
REMARK   64  A    between atoms: _152  and  _153
REMARK   65  A    between atoms: _152  and  _155
REMARK   66  A    between atoms: _155  and  _156
REMARK   67  A    between atoms: _161  and  _163
REMARK   68  A    between atoms: _163  and  _164
REMARK   69  A    between atoms: _163  and  _166
REMARK   70  A    between atoms: _169  and  _171
REMARK   71  A    between atoms: _171  and  _172
REMARK   72  A    between atoms: _171  and  _174
REMARK   73  A    between atoms: _174  and  _175
REMARK   74  A    between atoms: _178  and  _180
REMARK   75  A    between atoms: _180  and  _181
REMARK   76  A    between atoms: _180  and  _183
REMARK   77  A    between atoms: _183  and  _184
REMARK   78  A    between atoms: _188  and  _189
REMARK   79  A    between atoms: _194  and  _196
REMARK   80  A    between atoms: _196  and  _197
REMARK   81  A    between atoms: _196  and  _199
REMARK   82  A    between atoms: _202  and  _204
REMARK   83  A    between atoms: _204  and  _205
REMARK   84  A    between atoms: _204  and  _207
REMARK   85  A    between atoms: _207  and  _208
REMARK   86  A    between atoms: _211  and  _213
REMARK   87  A    between atoms: _213  and  _214
REMARK   88  A    between atoms: _213  and  _216
REMARK   89  A    between atoms: _216  and  _217
REMARK   90  A    between atoms: _220  and  _222
REMARK   91  A    between atoms: _222  and  _223
REMARK   92  A    between atoms: _222  and  _225
REMARK   93  A    between atoms: _225  and  _226
REMARK   94  A    between atoms: _229  and  _231
REMARK   95  A    between atoms: _231  and  _232
REMARK   96  A    between atoms: _234  and  _236
REMARK   97  A    between atoms: _236  and  _237
REMARK   98  A    between atoms: _236  and  _239
REMARK   99  A    between atoms: _239  and  _240
REMARK  100  A    between atoms: _240  and  _241
REMARK  101  A    between atoms: _241  and  _242
REMARK  102  A    between atoms: _251  and  _253
REMARK  103  A    between atoms: _253  and  _254
REMARK  104  A    between atoms: _253  and  _256
REMARK  105  A    between atoms: _256  and  _257
REMARK  106  A    between atoms: _257  and  _258
REMARK  107  A    between atoms: _258  and  _259
REMARK  108  A    between atoms: _268  and  _270
REMARK  109  A    between atoms: _270  and  _271
REMARK  110  A    between atoms: _270  and  _273
REMARK  111  A    between atoms: _273  and  _274
REMARK  112  A    between atoms: _277  and  _279
REMARK  113  A    between atoms: _279  and  _280
REMARK  114  A    between atoms: _279  and  _282
REMARK  115  A    between atoms: _282  and  _283
REMARK  116  A    between atoms: _286  and  _288
REMARK  117  A    between atoms: _288  and  _289
REMARK  118  A    between atoms: _288  and  _291
REMARK  119  A    between atoms: _291  and  _292
REMARK  120  A    between atoms: _295  and  _297
REMARK  121  A    between atoms: _297  and  _298
REMARK  122  A    between atoms: _297  and  _300
REMARK  123  A    between atoms: _300  and  _301
REMARK  124  A    between atoms: _304  and  _306
REMARK  125  A    between atoms: _306  and  _307
REMARK  126  A    between atoms: _306  and  _309
REMARK  127  A    between atoms: _309  and  _310
REMARK  128  A    between atoms: _313  and  _315
REMARK  129  A    between atoms: _315  and  _316
REMARK  130  A    between atoms: _318  and  _320
REMARK  131  A    between atoms: _320  and  _321
REMARK  132  A    between atoms: _324  and  _326
REMARK  133  A    between atoms: _326  and  _327
REMARK  134  A    between atoms: _326  and  _329
REMARK  135  A    between atoms: _329  and  _330
REMARK  136  A    between atoms: _333  and  _335
REMARK  137  A    between atoms: _335  and  _336
REMARK  138  A    between atoms: _335  and  _338
REMARK  139  A    between atoms: _338  and  _339
REMARK  140  A    between atoms: _342  and  _344
REMARK  141  A    between atoms: _344  and  _345
REMARK  142  A    between atoms: _344  and  _347
REMARK  143  A    between atoms: _347  and  _348
REMARK  144  A    between atoms: _350  and  _352
REMARK  145  A    between atoms: _352  and  _353
REMARK  146  A    between atoms: _352  and  _355
REMARK  147  A    between atoms: _358  and  _360
REMARK  148  A    between atoms: _360  and  _361
REMARK  149  A    between atoms: _360  and  _363
REMARK  150  A    between atoms: _363  and  _364
REMARK  151  A    between atoms: _367  and  _369
REMARK  152  A    between atoms: _369  and  _370
REMARK  153  A    between atoms: _372  and  _374
REMARK  154  A    between atoms: _374  and  _375
REMARK  155  A    between atoms: _374  and  _377
REMARK  156  A    between atoms: _377  and  _378
REMARK  157  A    between atoms: _381  and  _383
REMARK  158  A    between atoms: _383  and  _384
REMARK  159  A    between atoms: _386  and  _388
REMARK  160  A    between atoms: _388  and  _389
REMARK  161  A    between atoms: _391  and  _393
REMARK  162  A    between atoms: _393  and  _394
REMARK  163  A    between atoms: _393  and  _396
REMARK  164  A    between atoms: _399  and  _401
REMARK  165  A    between atoms: _401  and  _402
REMARK  166  A    between atoms: _404  and  _406
REMARK  167  A    between atoms: _406  and  _407
REMARK  168  A    between atoms: _409  and  _411
REMARK  169  A    between atoms: _411  and  _412
REMARK  170  A    between atoms: _411  and  _414
REMARK  171  A    between atoms: _414  and  _415
REMARK  172  A    between atoms: _420  and  _422
REMARK  173  A    between atoms: _422  and  _423
REMARK  174  A    between atoms: _422  and  _425
REMARK  175  A    between atoms: _428  and  _430
REMARK  176  A    between atoms: _430  and  _431
REMARK  177  A    between atoms: _430  and  _433
REMARK  178  A    between atoms: _433  and  _434
REMARK  179  A    between atoms: _437  and  _439
REMARK  180  A    between atoms: _439  and  _440
REMARK  181  A    between atoms: _439  and  _442
REMARK  182  A    between atoms: _442  and  _443
REMARK  183  A    between atoms: _446  and  _448
REMARK  184  A    between atoms: _448  and  _449
REMARK  185  A    between atoms: _448  and  _451
REMARK  186  A    between atoms: _451  and  _452
REMARK  187  A    between atoms: _456  and  _457
REMARK  188  A    between atoms: _462  and  _464
REMARK  189  A    between atoms: _464  and  _465
REMARK  190  A    between atoms: _464  and  _467
REMARK  191  A    between atoms: _470  and  _472
REMARK  192  A    between atoms: _472  and  _473
REMARK  193  A    between atoms: _472  and  _475
REMARK  194  A    between atoms: _475  and  _476
REMARK  195  A    between atoms: _479  and  _481
REMARK  196  A    between atoms: _481  and  _482
REMARK  197  A    between atoms: _481  and  _484
REMARK  198  A    between atoms: _484  and  _485
REMARK  199  A    between atoms: _488  and  _490
REMARK  200  A    between atoms: _490  and  _491
REMARK  201  A    between atoms: _493  and  _495
REMARK  202  A    between atoms: _495  and  _496
REMARK  203  A    between atoms: _495  and  _498
REMARK  204  A    between atoms: _498  and  _499
REMARK  205  A    between atoms: _499  and  _500
REMARK  206  A    between atoms: _500  and  _501
REMARK                            x       y       z     vdW  Elec       q    Type
REMARK                         _______ _______ _______ _____ _____    ______ ____
ROOT
ATOM      1  O   HOH     1       9.844  14.385   8.496  0.00  0.00    +0.000 OA
ENDROOT
TORSDOF 0
REMARK  Name = ../refined-set-2016/2fmb/2fmb_pocket.pdb
REMARK  206 active torsions:
REMARK  status: ('A' for Active; 'I' for Inactive)
REMARK    1  A    between atoms: _1  and  _3
REMARK    2  A    between atoms: _3  and  _4
REMARK    3  A    between atoms: _3  and  _6
REMARK    4  A    between atoms: _6  and  _7
REMARK    5  A    between atoms: _7  and  _8
REMARK    6  A    between atoms: _8  and  _9
REMARK    7  A    between atoms: _18  and  _20
REMARK    8  A    between atoms: _20  and  _21
REMARK    9  A    between atoms: _20  and  _23
REMARK   10  A    between atoms: _23  and  _24
REMARK   11  A    between atoms: _27  and  _29
REMARK   12  A    between atoms: _29  and  _30
REMARK   13  A    between atoms: _29  and  _32
REMARK   14  A    between atoms: _32  and  _33
REMARK   15  A    between atoms: _36  and  _38
REMARK   16  A    between atoms: _38  and  _39
REMARK   17  A    between atoms: _38  and  _41
REMARK   18  A    between atoms: _41  and  _42
REMARK   19  A    between atoms: _45  and  _47
REMARK   20  A    between atoms: _47  and  _48
REMARK   21  A    between atoms: _47  and  _50
REMARK   22  A    between atoms: _50  and  _51
REMARK   23  A    between atoms: _54  and  _56
REMARK   24  A    between atoms: _56  and  _57
REMARK   25  A    between atoms: _59  and  _61
REMARK   26  A    between atoms: _61  and  _62
REMARK   27  A    between atoms: _65  and  _67
REMARK   28  A    between atoms: _67  and  _68
REMARK   29  A    between atoms: _67  and  _70
REMARK   30  A    between atoms: _70  and  _71
REMARK   31  A    between atoms: _74  and  _76
REMARK   32  A    between atoms: _76  and  _77
REMARK   33  A    between atoms: _76  and  _79
REMARK   34  A    between atoms: _79  and  _80
REMARK   35  A    between atoms: _83  and  _85
REMARK   36  A    between atoms: _85  and  _86
REMARK   37  A    between atoms: _85  and  _88
REMARK   38  A    between atoms: _88  and  _89
REMARK   39  A    between atoms: _91  and  _93
REMARK   40  A    between atoms: _93  and  _94
REMARK   41  A    between atoms: _93  and  _96
REMARK   42  A    between atoms: _99  and  _101
REMARK   43  A    between atoms: _101  and  _102
REMARK   44  A    between atoms: _101  and  _104
REMARK   45  A    between atoms: _104  and  _105
REMARK   46  A    between atoms: _108  and  _110
REMARK   47  A    between atoms: _110  and  _111
REMARK   48  A    between atoms: _113  and  _115
REMARK   49  A    between atoms: _115  and  _116
REMARK   50  A    between atoms: _115  and  _118
REMARK   51  A    between atoms: _118  and  _119
REMARK   52  A    between atoms: _122  and  _124
REMARK   53  A    between atoms: _124  and  _125
REMARK   54  A    between atoms: _127  and  _129
REMARK   55  A    between atoms: _129  and  _130
REMARK   56  A    between atoms: _132  and  _134
REMARK   57  A    between atoms: _134  and  _135
REMARK   58  A    between atoms: _134  and  _137
REMARK   59  A    between atoms: _140  and  _142
REMARK   60  A    between atoms: _142  and  _143
REMARK   61  A    between atoms: _145  and  _147
REMARK   62  A    between atoms: _147  and  _148
REMARK   63  A    between atoms: _150  and  _152
REMARK   64  A    between atoms: _152  and  _153
REMARK   65  A    between atoms: _152  and  _155
REMARK   66  A    between atoms: _155  and  _156
REMARK   67  A    between atoms: _161  and  _163
REMARK   68  A    between atoms: _163  and  _164
REMARK   69  A    between atoms: _163  and  _166
REMARK   70  A    between atoms: _169  and  _171
REMARK   71  A    between atoms: _171  and  _172
REMARK   72  A    between atoms: _171  and  _174
REMARK   73  A    between atoms: _174  and  _175
REMARK   74  A    between atoms: _178  and  _180
REMARK   75  A    between atoms: _180  and  _181
REMARK   76  A    between atoms: _180  and  _183
REMARK   77  A    between atoms: _183  and  _184
REMARK   78  A    between atoms: _188  and  _189
REMARK   79  A    between atoms: _194  and  _196
REMARK   80  A    between atoms: _196  and  _197
REMARK   81  A    between atoms: _196  and  _199
REMARK   82  A    between atoms: _202  and  _204
REMARK   83  A    between atoms: _204  and  _205
REMARK   84  A    between atoms: _204  and  _207
REMARK   85  A    between atoms: _207  and  _208
REMARK   86  A    between atoms: _211  and  _213
REMARK   87  A    between atoms: _213  and  _214
REMARK   88  A    between atoms: _213  and  _216
REMARK   89  A    between atoms: _216  and  _217
REMARK   90  A    between atoms: _220  and  _222
REMARK   91  A    between atoms: _222  and  _223
REMARK   92  A    between atoms: _222  and  _225
REMARK   93  A    between atoms: _225  and  _226
REMARK   94  A    between atoms: _229  and  _231
REMARK   95  A    between atoms: _231  and  _232
REMARK   96  A    between atoms: _234  and  _236
REMARK   97  A    between atoms: _236  and  _237
REMARK   98  A    between atoms: _236  and  _239
REMARK   99  A    between atoms: _239  and  _240
REMARK  100  A    between atoms: _240  and  _241
REMARK  101  A    between atoms: _241  and  _242
REMARK  102  A    between atoms: _251  and  _253
REMARK  103  A    between atoms: _253  and  _254
REMARK  104  A    between atoms: _253  and  _256
REMARK  105  A    between atoms: _256  and  _257
REMARK  106  A    between atoms: _257  and  _258
REMARK  107  A    between atoms: _258  and  _259
REMARK  108  A    between atoms: _268  and  _270
REMARK  109  A    between atoms: _270  and  _271
REMARK  110  A    between atoms: _270  and  _273
REMARK  111  A    between atoms: _273  and  _274
REMARK  112  A    between atoms: _277  and  _279
REMARK  113  A    between atoms: _279  and  _280
REMARK  114  A    between atoms: _279  and  _282
REMARK  115  A    between atoms: _282  and  _283
REMARK  116  A    between atoms: _286  and  _288
REMARK  117  A    between atoms: _288  and  _289
REMARK  118  A    between atoms: _288  and  _291
REMARK  119  A    between atoms: _291  and  _292
REMARK  120  A    between atoms: _295  and  _297
REMARK  121  A    between atoms: _297  and  _298
REMARK  122  A    between atoms: _297  and  _300
REMARK  123  A    between atoms: _300  and  _301
REMARK  124  A    between atoms: _304  and  _306
REMARK  125  A    between atoms: _306  and  _307
REMARK  126  A    between atoms: _306  and  _309
REMARK  127  A    between atoms: _309  and  _310
REMARK  128  A    between atoms: _313  and  _315
REMARK  129  A    between atoms: _315  and  _316
REMARK  130  A    between atoms: _318  and  _320
REMARK  131  A    between atoms: _320  and  _321
REMARK  132  A    between atoms: _324  and  _326
REMARK  133  A    between atoms: _326  and  _327
REMARK  134  A    between atoms: _326  and  _329
REMARK  135  A    between atoms: _329  and  _330
REMARK  136  A    between atoms: _333  and  _335
REMARK  137  A    between atoms: _335  and  _336
REMARK  138  A    between atoms: _335  and  _338
REMARK  139  A    between atoms: _338  and  _339
REMARK  140  A    between atoms: _342  and  _344
REMARK  141  A    between atoms: _344  and  _345
REMARK  142  A    between atoms: _344  and  _347
REMARK  143  A    between atoms: _347  and  _348
REMARK  144  A    between atoms: _350  and  _352
REMARK  145  A    between atoms: _352  and  _353
REMARK  146  A    between atoms: _352  and  _355
REMARK  147  A    between atoms: _358  and  _360
REMARK  148  A    between atoms: _360  and  _361
REMARK  149  A    between atoms: _360  and  _363
REMARK  150  A    between atoms: _363  and  _364
REMARK  151  A    between atoms: _367  and  _369
REMARK  152  A    between atoms: _369  and  _370
REMARK  153  A    between atoms: _372  and  _374
REMARK  154  A    between atoms: _374  and  _375
REMARK  155  A    between atoms: _374  and  _377
REMARK  156  A    between atoms: _377  and  _378
REMARK  157  A    between atoms: _381  and  _383
REMARK  158  A    between atoms: _383  and  _384
REMARK  159  A    between atoms: _386  and  _388
REMARK  160  A    between atoms: _388  and  _389
REMARK  161  A    between atoms: _391  and  _393
REMARK  162  A    between atoms: _393  and  _394
REMARK  163  A    between atoms: _393  and  _396
REMARK  164  A    between atoms: _399  and  _401
REMARK  165  A    between atoms: _401  and  _402
REMARK  166  A    between atoms: _404  and  _406
REMARK  167  A    between atoms: _406  and  _407
REMARK  168  A    between atoms: _409  and  _411
REMARK  169  A    between atoms: _411  and  _412
REMARK  170  A    between atoms: _411  and  _414
REMARK  171  A    between atoms: _414  and  _415
REMARK  172  A    between atoms: _420  and  _422
REMARK  173  A    between atoms: _422  and  _423
REMARK  174  A    between atoms: _422  and  _425
REMARK  175  A    between atoms: _428  and  _430
REMARK  176  A    between atoms: _430  and  _431
REMARK  177  A    between atoms: _430  and  _433
REMARK  178  A    between atoms: _433  and  _434
REMARK  179  A    between atoms: _437  and  _439
REMARK  180  A    between atoms: _439  and  _440
REMARK  181  A    between atoms: _439  and  _442
REMARK  182  A    between atoms: _442  and  _443
REMARK  183  A    between atoms: _446  and  _448
REMARK  184  A    between atoms: _448  and  _449
REMARK  185  A    between atoms: _448  and  _451
REMARK  186  A    between atoms: _451  and  _452
REMARK  187  A    between atoms: _456  and  _457
REMARK  188  A    between atoms: _462  and  _464
REMARK  189  A    between atoms: _464  and  _465
REMARK  190  A    between atoms: _464  and  _467
REMARK  191  A    between atoms: _470  and  _472
REMARK  192  A    between atoms: _472  and  _473
REMARK  193  A    between atoms: _472  and  _475
REMARK  194  A    between atoms: _475  and  _476
REMARK  195  A    between atoms: _479  and  _481
REMARK  196  A    between atoms: _481  and  _482
REMARK  197  A    between atoms: _481  and  _484
REMARK  198  A    between atoms: _484  and  _485
REMARK  199  A    between atoms: _488  and  _490
REMARK  200  A    between atoms: _490  and  _491
REMARK  201  A    between atoms: _493  and  _495
REMARK  202  A    between atoms: _495  and  _496
REMARK  203  A    between atoms: _495  and  _498
REMARK  204  A    between atoms: _498  and  _499
REMARK  205  A    between atoms: _499  and  _500
REMARK  206  A    between atoms: _500  and  _501
REMARK                            x       y       z     vdW  Elec       q    Type
REMARK                         _______ _______ _______ _____ _____    ______ ____
ROOT
ATOM      1  O   HOH     1     -11.158  23.820   2.964  0.00  0.00    +0.000 OA
ENDROOT
TORSDOF 0
REMARK  Name = ../refined-set-2016/2fmb/2fmb_pocket.pdb
REMARK  206 active torsions:
REMARK  status: ('A' for Active; 'I' for Inactive)
REMARK    1  A    between atoms: _1  and  _3
REMARK    2  A    between atoms: _3  and  _4
REMARK    3  A    between atoms: _3  and  _6
REMARK    4  A    between atoms: _6  and  _7
REMARK    5  A    between atoms: _7  and  _8
REMARK    6  A    between atoms: _8  and  _9
REMARK    7  A    between atoms: _18  and  _20
REMARK    8  A    between atoms: _20  and  _21
REMARK    9  A    between atoms: _20  and  _23
REMARK   10  A    between atoms: _23  and  _24
REMARK   11  A    between atoms: _27  and  _29
REMARK   12  A    between atoms: _29  and  _30
REMARK   13  A    between atoms: _29  and  _32
REMARK   14  A    between atoms: _32  and  _33
REMARK   15  A    between atoms: _36  and  _38
REMARK   16  A    between atoms: _38  and  _39
REMARK   17  A    between atoms: _38  and  _41
REMARK   18  A    between atoms: _41  and  _42
REMARK   19  A    between atoms: _45  and  _47
REMARK   20  A    between atoms: _47  and  _48
REMARK   21  A    between atoms: _47  and  _50
REMARK   22  A    between atoms: _50  and  _51
REMARK   23  A    between atoms: _54  and  _56
REMARK   24  A    between atoms: _56  and  _57
REMARK   25  A    between atoms: _59  and  _61
REMARK   26  A    between atoms: _61  and  _62
REMARK   27  A    between atoms: _65  and  _67
REMARK   28  A    between atoms: _67  and  _68
REMARK   29  A    between atoms: _67  and  _70
REMARK   30  A    between atoms: _70  and  _71
REMARK   31  A    between atoms: _74  and  _76
REMARK   32  A    between atoms: _76  and  _77
REMARK   33  A    between atoms: _76  and  _79
REMARK   34  A    between atoms: _79  and  _80
REMARK   35  A    between atoms: _83  and  _85
REMARK   36  A    between atoms: _85  and  _86
REMARK   37  A    between atoms: _85  and  _88
REMARK   38  A    between atoms: _88  and  _89
REMARK   39  A    between atoms: _91  and  _93
REMARK   40  A    between atoms: _93  and  _94
REMARK   41  A    between atoms: _93  and  _96
REMARK   42  A    between atoms: _99  and  _101
REMARK   43  A    between atoms: _101  and  _102
REMARK   44  A    between atoms: _101  and  _104
REMARK   45  A    between atoms: _104  and  _105
REMARK   46  A    between atoms: _108  and  _110
REMARK   47  A    between atoms: _110  and  _111
REMARK   48  A    between atoms: _113  and  _115
REMARK   49  A    between atoms: _115  and  _116
REMARK   50  A    between atoms: _115  and  _118
REMARK   51  A    between atoms: _118  and  _119
REMARK   52  A    between atoms: _122  and  _124
REMARK   53  A    between atoms: _124  and  _125
REMARK   54  A    between atoms: _127  and  _129
REMARK   55  A    between atoms: _129  and  _130
REMARK   56  A    between atoms: _132  and  _134
REMARK   57  A    between atoms: _134  and  _135
REMARK   58  A    between atoms: _134  and  _137
REMARK   59  A    between atoms: _140  and  _142
REMARK   60  A    between atoms: _142  and  _143
REMARK   61  A    between atoms: _145  and  _147
REMARK   62  A    between atoms: _147  and  _148
REMARK   63  A    between atoms: _150  and  _152
REMARK   64  A    between atoms: _152  and  _153
REMARK   65  A    between atoms: _152  and  _155
REMARK   66  A    between atoms: _155  and  _156
REMARK   67  A    between atoms: _161  and  _163
REMARK   68  A    between atoms: _163  and  _164
REMARK   69  A    between atoms: _163  and  _166
REMARK   70  A    between atoms: _169  and  _171
REMARK   71  A    between atoms: _171  and  _172
REMARK   72  A    between atoms: _171  and  _174
REMARK   73  A    between atoms: _174  and  _175
REMARK   74  A    between atoms: _178  and  _180
REMARK   75  A    between atoms: _180  and  _181
REMARK   76  A    between atoms: _180  and  _183
REMARK   77  A    between atoms: _183  and  _184
REMARK   78  A    between atoms: _188  and  _189
REMARK   79  A    between atoms: _194  and  _196
REMARK   80  A    between atoms: _196  and  _197
REMARK   81  A    between atoms: _196  and  _199
REMARK   82  A    between atoms: _202  and  _204
REMARK   83  A    between atoms: _204  and  _205
REMARK   84  A    between atoms: _204  and  _207
REMARK   85  A    between atoms: _207  and  _208
REMARK   86  A    between atoms: _211  and  _213
REMARK   87  A    between atoms: _213  and  _214
REMARK   88  A    between atoms: _213  and  _216
REMARK   89  A    between atoms: _216  and  _217
REMARK   90  A    between atoms: _220  and  _222
REMARK   91  A    between atoms: _222  and  _223
REMARK   92  A    between atoms: _222  and  _225
REMARK   93  A    between atoms: _225  and  _226
REMARK   94  A    between atoms: _229  and  _231
REMARK   95  A    between atoms: _231  and  _232
REMARK   96  A    between atoms: _234  and  _236
REMARK   97  A    between atoms: _236  and  _237
REMARK   98  A    between atoms: _236  and  _239
REMARK   99  A    between atoms: _239  and  _240
REMARK  100  A    between atoms: _240  and  _241
REMARK  101  A    between atoms: _241  and  _242
REMARK  102  A    between atoms: _251  and  _253
REMARK  103  A    between atoms: _253  and  _254
REMARK  104  A    between atoms: _253  and  _256
REMARK  105  A    between atoms: _256  and  _257
REMARK  106  A    between atoms: _257  and  _258
REMARK  107  A    between atoms: _258  and  _259
REMARK  108  A    between atoms: _268  and  _270
REMARK  109  A    between atoms: _270  and  _271
REMARK  110  A    between atoms: _270  and  _273
REMARK  111  A    between atoms: _273  and  _274
REMARK  112  A    between atoms: _277  and  _279
REMARK  113  A    between atoms: _279  and  _280
REMARK  114  A    between atoms: _279  and  _282
REMARK  115  A    between atoms: _282  and  _283
REMARK  116  A    between atoms: _286  and  _288
REMARK  117  A    between atoms: _288  and  _289
REMARK  118  A    between atoms: _288  and  _291
REMARK  119  A    between atoms: _291  and  _292
REMARK  120  A    between atoms: _295  and  _297
REMARK  121  A    between atoms: _297  and  _298
REMARK  122  A    between atoms: _297  and  _300
REMARK  123  A    between atoms: _300  and  _301
REMARK  124  A    between atoms: _304  and  _306
REMARK  125  A    between atoms: _306  and  _307
REMARK  126  A    between atoms: _306  and  _309
REMARK  127  A    between atoms: _309  and  _310
REMARK  128  A    between atoms: _313  and  _315
REMARK  129  A    between atoms: _315  and  _316
REMARK  130  A    between atoms: _318  and  _320
REMARK  131  A    between atoms: _320  and  _321
REMARK  132  A    between atoms: _324  and  _326
REMARK  133  A    between atoms: _326  and  _327
REMARK  134  A    between atoms: _326  and  _329
REMARK  135  A    between atoms: _329  and  _330
REMARK  136  A    between atoms: _333  and  _335
REMARK  137  A    between atoms: _335  and  _336
REMARK  138  A    between atoms: _335  and  _338
REMARK  139  A    between atoms: _338  and  _339
REMARK  140  A    between atoms: _342  and  _344
REMARK  141  A    between atoms: _344  and  _345
REMARK  142  A    between atoms: _344  and  _347
REMARK  143  A    between atoms: _347  and  _348
REMARK  144  A    between atoms: _350  and  _352
REMARK  145  A    between atoms: _352  and  _353
REMARK  146  A    between atoms: _352  and  _355
REMARK  147  A    between atoms: _358  and  _360
REMARK  148  A    between atoms: _360  and  _361
REMARK  149  A    between atoms: _360  and  _363
REMARK  150  A    between atoms: _363  and  _364
REMARK  151  A    between atoms: _367  and  _369
REMARK  152  A    between atoms: _369  and  _370
REMARK  153  A    between atoms: _372  and  _374
REMARK  154  A    between atoms: _374  and  _375
REMARK  155  A    between atoms: _374  and  _377
REMARK  156  A    between atoms: _377  and  _378
REMARK  157  A    between atoms: _381  and  _383
REMARK  158  A    between atoms: _383  and  _384
REMARK  159  A    between atoms: _386  and  _388
REMARK  160  A    between atoms: _388  and  _389
REMARK  161  A    between atoms: _391  and  _393
REMARK  162  A    between atoms: _393  and  _394
REMARK  163  A    between atoms: _393  and  _396
REMARK  164  A    between atoms: _399  and  _401
REMARK  165  A    between atoms: _401  and  _402
REMARK  166  A    between atoms: _404  and  _406
REMARK  167  A    between atoms: _406  and  _407
REMARK  168  A    between atoms: _409  and  _411
REMARK  169  A    between atoms: _411  and  _412
REMARK  170  A    between atoms: _411  and  _414
REMARK  171  A    between atoms: _414  and  _415
REMARK  172  A    between atoms: _420  and  _422
REMARK  173  A    between atoms: _422  and  _423
REMARK  174  A    between atoms: _422  and  _425
REMARK  175  A    between atoms: _428  and  _430
REMARK  176  A    between atoms: _430  and  _431
REMARK  177  A    between atoms: _430  and  _433
REMARK  178  A    between atoms: _433  and  _434
REMARK  179  A    between atoms: _437  and  _439
REMARK  180  A    between atoms: _439  and  _440
REMARK  181  A    between atoms: _439  and  _442
REMARK  182  A    between atoms: _442  and  _443
REMARK  183  A    between atoms: _446  and  _448
REMARK  184  A    between atoms: _448  and  _449
REMARK  185  A    between atoms: _448  and  _451
REMARK  186  A    between atoms: _451  and  _452
REMARK  187  A    between atoms: _456  and  _457
REMARK  188  A    between atoms: _462  and  _464
REMARK  189  A    between atoms: _464  and  _465
REMARK  190  A    between atoms: _464  and  _467
REMARK  191  A    between atoms: _470  and  _472
REMARK  192  A    between atoms: _472  and  _473
REMARK  193  A    between atoms: _472  and  _475
REMARK  194  A    between atoms: _475  and  _476
REMARK  195  A    between atoms: _479  and  _481
REMARK  196  A    between atoms: _481  and  _482
REMARK  197  A    between atoms: _481  and  _484
REMARK  198  A    between atoms: _484  and  _485
REMARK  199  A    between atoms: _488  and  _490
REMARK  200  A    between atoms: _490  and  _491
REMARK  201  A    between atoms: _493  and  _495
REMARK  202  A    between atoms: _495  and  _496
REMARK  203  A    between atoms: _495  and  _498
REMARK  204  A    between atoms: _498  and  _499
REMARK  205  A    between atoms: _499  and  _500
REMARK  206  A    between atoms: _500  and  _501
REMARK                            x       y       z     vdW  Elec       q    Type
REMARK                         _______ _______ _______ _____ _____    ______ ____
ROOT
ATOM      1  O   HOH     1       5.877  26.586  -0.372  0.00  0.00    +0.000 OA
ENDROOT
TORSDOF 0
REMARK  Name = ../refined-set-2016/2fmb/2fmb_pocket.pdb
REMARK  206 active torsions:
REMARK  status: ('A' for Active; 'I' for Inactive)
REMARK    1  A    between atoms: _1  and  _3
REMARK    2  A    between atoms: _3  and  _4
REMARK    3  A    between atoms: _3  and  _6
REMARK    4  A    between atoms: _6  and  _7
REMARK    5  A    between atoms: _7  and  _8
REMARK    6  A    between atoms: _8  and  _9
REMARK    7  A    between atoms: _18  and  _20
REMARK    8  A    between atoms: _20  and  _21
REMARK    9  A    between atoms: _20  and  _23
REMARK   10  A    between atoms: _23  and  _24
REMARK   11  A    between atoms: _27  and  _29
REMARK   12  A    between atoms: _29  and  _30
REMARK   13  A    between atoms: _29  and  _32
REMARK   14  A    between atoms: _32  and  _33
REMARK   15  A    between atoms: _36  and  _38
REMARK   16  A    between atoms: _38  and  _39
REMARK   17  A    between atoms: _38  and  _41
REMARK   18  A    between atoms: _41  and  _42
REMARK   19  A    between atoms: _45  and  _47
REMARK   20  A    between atoms: _47  and  _48
REMARK   21  A    between atoms: _47  and  _50
REMARK   22  A    between atoms: _50  and  _51
REMARK   23  A    between atoms: _54  and  _56
REMARK   24  A    between atoms: _56  and  _57
REMARK   25  A    between atoms: _59  and  _61
REMARK   26  A    between atoms: _61  and  _62
REMARK   27  A    between atoms: _65  and  _67
REMARK   28  A    between atoms: _67  and  _68
REMARK   29  A    between atoms: _67  and  _70
REMARK   30  A    between atoms: _70  and  _71
REMARK   31  A    between atoms: _74  and  _76
REMARK   32  A    between atoms: _76  and  _77
REMARK   33  A    between atoms: _76  and  _79
REMARK   34  A    between atoms: _79  and  _80
REMARK   35  A    between atoms: _83  and  _85
REMARK   36  A    between atoms: _85  and  _86
REMARK   37  A    between atoms: _85  and  _88
REMARK   38  A    between atoms: _88  and  _89
REMARK   39  A    between atoms: _91  and  _93
REMARK   40  A    between atoms: _93  and  _94
REMARK   41  A    between atoms: _93  and  _96
REMARK   42  A    between atoms: _99  and  _101
REMARK   43  A    between atoms: _101  and  _102
REMARK   44  A    between atoms: _101  and  _104
REMARK   45  A    between atoms: _104  and  _105
REMARK   46  A    between atoms: _108  and  _110
REMARK   47  A    between atoms: _110  and  _111
REMARK   48  A    between atoms: _113  and  _115
REMARK   49  A    between atoms: _115  and  _116
REMARK   50  A    between atoms: _115  and  _118
REMARK   51  A    between atoms: _118  and  _119
REMARK   52  A    between atoms: _122  and  _124
REMARK   53  A    between atoms: _124  and  _125
REMARK   54  A    between atoms: _127  and  _129
REMARK   55  A    between atoms: _129  and  _130
REMARK   56  A    between atoms: _132  and  _134
REMARK   57  A    between atoms: _134  and  _135
REMARK   58  A    between atoms: _134  and  _137
REMARK   59  A    between atoms: _140  and  _142
REMARK   60  A    between atoms: _142  and  _143
REMARK   61  A    between atoms: _145  and  _147
REMARK   62  A    between atoms: _147  and  _148
REMARK   63  A    between atoms: _150  and  _152
REMARK   64  A    between atoms: _152  and  _153
REMARK   65  A    between atoms: _152  and  _155
REMARK   66  A    between atoms: _155  and  _156
REMARK   67  A    between atoms: _161  and  _163
REMARK   68  A    between atoms: _163  and  _164
REMARK   69  A    between atoms: _163  and  _166
REMARK   70  A    between atoms: _169  and  _171
REMARK   71  A    between atoms: _171  and  _172
REMARK   72  A    between atoms: _171  and  _174
REMARK   73  A    between atoms: _174  and  _175
REMARK   74  A    between atoms: _178  and  _180
REMARK   75  A    between atoms: _180  and  _181
REMARK   76  A    between atoms: _180  and  _183
REMARK   77  A    between atoms: _183  and  _184
REMARK   78  A    between atoms: _188  and  _189
REMARK   79  A    between atoms: _194  and  _196
REMARK   80  A    between atoms: _196  and  _197
REMARK   81  A    between atoms: _196  and  _199
REMARK   82  A    between atoms: _202  and  _204
REMARK   83  A    between atoms: _204  and  _205
REMARK   84  A    between atoms: _204  and  _207
REMARK   85  A    between atoms: _207  and  _208
REMARK   86  A    between atoms: _211  and  _213
REMARK   87  A    between atoms: _213  and  _214
REMARK   88  A    between atoms: _213  and  _216
REMARK   89  A    between atoms: _216  and  _217
REMARK   90  A    between atoms: _220  and  _222
REMARK   91  A    between atoms: _222  and  _223
REMARK   92  A    between atoms: _222  and  _225
REMARK   93  A    between atoms: _225  and  _226
REMARK   94  A    between atoms: _229  and  _231
REMARK   95  A    between atoms: _231  and  _232
REMARK   96  A    between atoms: _234  and  _236
REMARK   97  A    between atoms: _236  and  _237
REMARK   98  A    between atoms: _236  and  _239
REMARK   99  A    between atoms: _239  and  _240
REMARK  100  A    between atoms: _240  and  _241
REMARK  101  A    between atoms: _241  and  _242
REMARK  102  A    between atoms: _251  and  _253
REMARK  103  A    between atoms: _253  and  _254
REMARK  104  A    between atoms: _253  and  _256
REMARK  105  A    between atoms: _256  and  _257
REMARK  106  A    between atoms: _257  and  _258
REMARK  107  A    between atoms: _258  and  _259
REMARK  108  A    between atoms: _268  and  _270
REMARK  109  A    between atoms: _270  and  _271
REMARK  110  A    between atoms: _270  and  _273
REMARK  111  A    between atoms: _273  and  _274
REMARK  112  A    between atoms: _277  and  _279
REMARK  113  A    between atoms: _279  and  _280
REMARK  114  A    between atoms: _279  and  _282
REMARK  115  A    between atoms: _282  and  _283
REMARK  116  A    between atoms: _286  and  _288
REMARK  117  A    between atoms: _288  and  _289
REMARK  118  A    between atoms: _288  and  _291
REMARK  119  A    between atoms: _291  and  _292
REMARK  120  A    between atoms: _295  and  _297
REMARK  121  A    between atoms: _297  and  _298
REMARK  122  A    between atoms: _297  and  _300
REMARK  123  A    between atoms: _300  and  _301
REMARK  124  A    between atoms: _304  and  _306
REMARK  125  A    between atoms: _306  and  _307
REMARK  126  A    between atoms: _306  and  _309
REMARK  127  A    between atoms: _309  and  _310
REMARK  128  A    between atoms: _313  and  _315
REMARK  129  A    between atoms: _315  and  _316
REMARK  130  A    between atoms: _318  and  _320
REMARK  131  A    between atoms: _320  and  _321
REMARK  132  A    between atoms: _324  and  _326
REMARK  133  A    between atoms: _326  and  _327
REMARK  134  A    between atoms: _326  and  _329
REMARK  135  A    between atoms: _329  and  _330
REMARK  136  A    between atoms: _333  and  _335
REMARK  137  A    between atoms: _335  and  _336
REMARK  138  A    between atoms: _335  and  _338
REMARK  139  A    between atoms: _338  and  _339
REMARK  140  A    between atoms: _342  and  _344
REMARK  141  A    between atoms: _344  and  _345
REMARK  142  A    between atoms: _344  and  _347
REMARK  143  A    between atoms: _347  and  _348
REMARK  144  A    between atoms: _350  and  _352
REMARK  145  A    between atoms: _352  and  _353
REMARK  146  A    between atoms: _352  and  _355
REMARK  147  A    between atoms: _358  and  _360
REMARK  148  A    between atoms: _360  and  _361
REMARK  149  A    between atoms: _360  and  _363
REMARK  150  A    between atoms: _363  and  _364
REMARK  151  A    between atoms: _367  and  _369
REMARK  152  A    between atoms: _369  and  _370
REMARK  153  A    between atoms: _372  and  _374
REMARK  154  A    between atoms: _374  and  _375
REMARK  155  A    between atoms: _374  and  _377
REMARK  156  A    between atoms: _377  and  _378
REMARK  157  A    between atoms: _381  and  _383
REMARK  158  A    between atoms: _383  and  _384
REMARK  159  A    between atoms: _386  and  _388
REMARK  160  A    between atoms: _388  and  _389
REMARK  161  A    between atoms: _391  and  _393
REMARK  162  A    between atoms: _393  and  _394
REMARK  163  A    between atoms: _393  and  _396
REMARK  164  A    between atoms: _399  and  _401
REMARK  165  A    between atoms: _401  and  _402
REMARK  166  A    between atoms: _404  and  _406
REMARK  167  A    between atoms: _406  and  _407
REMARK  168  A    between atoms: _409  and  _411
REMARK  169  A    between atoms: _411  and  _412
REMARK  170  A    between atoms: _411  and  _414
REMARK  171  A    between atoms: _414  and  _415
REMARK  172  A    between atoms: _420  and  _422
REMARK  173  A    between atoms: _422  and  _423
REMARK  174  A    between atoms: _422  and  _425
REMARK  175  A    between atoms: _428  and  _430
REMARK  176  A    between atoms: _430  and  _431
REMARK  177  A    between atoms: _430  and  _433
REMARK  178  A    between atoms: _433  and  _434
REMARK  179  A    between atoms: _437  and  _439
REMARK  180  A    between atoms: _439  and  _440
REMARK  181  A    between atoms: _439  and  _442
REMARK  182  A    between atoms: _442  and  _443
REMARK  183  A    between atoms: _446  and  _448
REMARK  184  A    between atoms: _448  and  _449
REMARK  185  A    between atoms: _448  and  _451
REMARK  186  A    between atoms: _451  and  _452
REMARK  187  A    between atoms: _456  and  _457
REMARK  188  A    between atoms: _462  and  _464
REMARK  189  A    between atoms: _464  and  _465
REMARK  190  A    between atoms: _464  and  _467
REMARK  191  A    between atoms: _470  and  _472
REMARK  192  A    between atoms: _472  and  _473
REMARK  193  A    between atoms: _472  and  _475
REMARK  194  A    between atoms: _475  and  _476
REMARK  195  A    between atoms: _479  and  _481
REMARK  196  A    between atoms: _481  and  _482
REMARK  197  A    between atoms: _481  and  _484
REMARK  198  A    between atoms: _484  and  _485
REMARK  199  A    between atoms: _488  and  _490
REMARK  200  A    between atoms: _490  and  _491
REMARK  201  A    between atoms: _493  and  _495
REMARK  202  A    between atoms: _495  and  _496
REMARK  203  A    between atoms: _495  and  _498
REMARK  204  A    between atoms: _498  and  _499
REMARK  205  A    between atoms: _499  and  _500
REMARK  206  A    between atoms: _500  and  _501
REMARK                            x       y       z     vdW  Elec       q    Type
REMARK                         _______ _______ _______ _____ _____    ______ ____
ROOT
ATOM      1  O   HOH     1       5.797  28.083  -2.101  0.00  0.00    +0.000 OA
ENDROOT
TORSDOF 0
REMARK  Name = ../refined-set-2016/2fmb/2fmb_pocket.pdb
REMARK  206 active torsions:
REMARK  status: ('A' for Active; 'I' for Inactive)
REMARK    1  A    between atoms: _1  and  _3
REMARK    2  A    between atoms: _3  and  _4
REMARK    3  A    between atoms: _3  and  _6
REMARK    4  A    between atoms: _6  and  _7
REMARK    5  A    between atoms: _7  and  _8
REMARK    6  A    between atoms: _8  and  _9
REMARK    7  A    between atoms: _18  and  _20
REMARK    8  A    between atoms: _20  and  _21
REMARK    9  A    between atoms: _20  and  _23
REMARK   10  A    between atoms: _23  and  _24
REMARK   11  A    between atoms: _27  and  _29
REMARK   12  A    between atoms: _29  and  _30
REMARK   13  A    between atoms: _29  and  _32
REMARK   14  A    between atoms: _32  and  _33
REMARK   15  A    between atoms: _36  and  _38
REMARK   16  A    between atoms: _38  and  _39
REMARK   17  A    between atoms: _38  and  _41
REMARK   18  A    between atoms: _41  and  _42
REMARK   19  A    between atoms: _45  and  _47
REMARK   20  A    between atoms: _47  and  _48
REMARK   21  A    between atoms: _47  and  _50
REMARK   22  A    between atoms: _50  and  _51
REMARK   23  A    between atoms: _54  and  _56
REMARK   24  A    between atoms: _56  and  _57
REMARK   25  A    between atoms: _59  and  _61
REMARK   26  A    between atoms: _61  and  _62
REMARK   27  A    between atoms: _65  and  _67
REMARK   28  A    between atoms: _67  and  _68
REMARK   29  A    between atoms: _67  and  _70
REMARK   30  A    between atoms: _70  and  _71
REMARK   31  A    between atoms: _74  and  _76
REMARK   32  A    between atoms: _76  and  _77
REMARK   33  A    between atoms: _76  and  _79
REMARK   34  A    between atoms: _79  and  _80
REMARK   35  A    between atoms: _83  and  _85
REMARK   36  A    between atoms: _85  and  _86
REMARK   37  A    between atoms: _85  and  _88
REMARK   38  A    between atoms: _88  and  _89
REMARK   39  A    between atoms: _91  and  _93
REMARK   40  A    between atoms: _93  and  _94
REMARK   41  A    between atoms: _93  and  _96
REMARK   42  A    between atoms: _99  and  _101
REMARK   43  A    between atoms: _101  and  _102
REMARK   44  A    between atoms: _101  and  _104
REMARK   45  A    between atoms: _104  and  _105
REMARK   46  A    between atoms: _108  and  _110
REMARK   47  A    between atoms: _110  and  _111
REMARK   48  A    between atoms: _113  and  _115
REMARK   49  A    between atoms: _115  and  _116
REMARK   50  A    between atoms: _115  and  _118
REMARK   51  A    between atoms: _118  and  _119
REMARK   52  A    between atoms: _122  and  _124
REMARK   53  A    between atoms: _124  and  _125
REMARK   54  A    between atoms: _127  and  _129
REMARK   55  A    between atoms: _129  and  _130
REMARK   56  A    between atoms: _132  and  _134
REMARK   57  A    between atoms: _134  and  _135
REMARK   58  A    between atoms: _134  and  _137
REMARK   59  A    between atoms: _140  and  _142
REMARK   60  A    between atoms: _142  and  _143
REMARK   61  A    between atoms: _145  and  _147
REMARK   62  A    between atoms: _147  and  _148
REMARK   63  A    between atoms: _150  and  _152
REMARK   64  A    between atoms: _152  and  _153
REMARK   65  A    between atoms: _152  and  _155
REMARK   66  A    between atoms: _155  and  _156
REMARK   67  A    between atoms: _161  and  _163
REMARK   68  A    between atoms: _163  and  _164
REMARK   69  A    between atoms: _163  and  _166
REMARK   70  A    between atoms: _169  and  _171
REMARK   71  A    between atoms: _171  and  _172
REMARK   72  A    between atoms: _171  and  _174
REMARK   73  A    between atoms: _174  and  _175
REMARK   74  A    between atoms: _178  and  _180
REMARK   75  A    between atoms: _180  and  _181
REMARK   76  A    between atoms: _180  and  _183
REMARK   77  A    between atoms: _183  and  _184
REMARK   78  A    between atoms: _188  and  _189
REMARK   79  A    between atoms: _194  and  _196
REMARK   80  A    between atoms: _196  and  _197
REMARK   81  A    between atoms: _196  and  _199
REMARK   82  A    between atoms: _202  and  _204
REMARK   83  A    between atoms: _204  and  _205
REMARK   84  A    between atoms: _204  and  _207
REMARK   85  A    between atoms: _207  and  _208
REMARK   86  A    between atoms: _211  and  _213
REMARK   87  A    between atoms: _213  and  _214
REMARK   88  A    between atoms: _213  and  _216
REMARK   89  A    between atoms: _216  and  _217
REMARK   90  A    between atoms: _220  and  _222
REMARK   91  A    between atoms: _222  and  _223
REMARK   92  A    between atoms: _222  and  _225
REMARK   93  A    between atoms: _225  and  _226
REMARK   94  A    between atoms: _229  and  _231
REMARK   95  A    between atoms: _231  and  _232
REMARK   96  A    between atoms: _234  and  _236
REMARK   97  A    between atoms: _236  and  _237
REMARK   98  A    between atoms: _236  and  _239
REMARK   99  A    between atoms: _239  and  _240
REMARK  100  A    between atoms: _240  and  _241
REMARK  101  A    between atoms: _241  and  _242
REMARK  102  A    between atoms: _251  and  _253
REMARK  103  A    between atoms: _253  and  _254
REMARK  104  A    between atoms: _253  and  _256
REMARK  105  A    between atoms: _256  and  _257
REMARK  106  A    between atoms: _257  and  _258
REMARK  107  A    between atoms: _258  and  _259
REMARK  108  A    between atoms: _268  and  _270
REMARK  109  A    between atoms: _270  and  _271
REMARK  110  A    between atoms: _270  and  _273
REMARK  111  A    between atoms: _273  and  _274
REMARK  112  A    between atoms: _277  and  _279
REMARK  113  A    between atoms: _279  and  _280
REMARK  114  A    between atoms: _279  and  _282
REMARK  115  A    between atoms: _282  and  _283
REMARK  116  A    between atoms: _286  and  _288
REMARK  117  A    between atoms: _288  and  _289
REMARK  118  A    between atoms: _288  and  _291
REMARK  119  A    between atoms: _291  and  _292
REMARK  120  A    between atoms: _295  and  _297
REMARK  121  A    between atoms: _297  and  _298
REMARK  122  A    between atoms: _297  and  _300
REMARK  123  A    between atoms: _300  and  _301
REMARK  124  A    between atoms: _304  and  _306
REMARK  125  A    between atoms: _306  and  _307
REMARK  126  A    between atoms: _306  and  _309
REMARK  127  A    between atoms: _309  and  _310
REMARK  128  A    between atoms: _313  and  _315
REMARK  129  A    between atoms: _315  and  _316
REMARK  130  A    between atoms: _318  and  _320
REMARK  131  A    between atoms: _320  and  _321
REMARK  132  A    between atoms: _324  and  _326
REMARK  133  A    between atoms: _326  and  _327
REMARK  134  A    between atoms: _326  and  _329
REMARK  135  A    between atoms: _329  and  _330
REMARK  136  A    between atoms: _333  and  _335
REMARK  137  A    between atoms: _335  and  _336
REMARK  138  A    between atoms: _335  and  _338
REMARK  139  A    between atoms: _338  and  _339
REMARK  140  A    between atoms: _342  and  _344
REMARK  141  A    between atoms: _344  and  _345
REMARK  142  A    between atoms: _344  and  _347
REMARK  143  A    between atoms: _347  and  _348
REMARK  144  A    between atoms: _350  and  _352
REMARK  145  A    between atoms: _352  and  _353
REMARK  146  A    between atoms: _352  and  _355
REMARK  147  A    between atoms: _358  and  _360
REMARK  148  A    between atoms: _360  and  _361
REMARK  149  A    between atoms: _360  and  _363
REMARK  150  A    between atoms: _363  and  _364
REMARK  151  A    between atoms: _367  and  _369
REMARK  152  A    between atoms: _369  and  _370
REMARK  153  A    between atoms: _372  and  _374
REMARK  154  A    between atoms: _374  and  _375
REMARK  155  A    between atoms: _374  and  _377
REMARK  156  A    between atoms: _377  and  _378
REMARK  157  A    between atoms: _381  and  _383
REMARK  158  A    between atoms: _383  and  _384
REMARK  159  A    between atoms: _386  and  _388
REMARK  160  A    between atoms: _388  and  _389
REMARK  161  A    between atoms: _391  and  _393
REMARK  162  A    between atoms: _393  and  _394
REMARK  163  A    between atoms: _393  and  _396
REMARK  164  A    between atoms: _399  and  _401
REMARK  165  A    between atoms: _401  and  _402
REMARK  166  A    between atoms: _404  and  _406
REMARK  167  A    between atoms: _406  and  _407
REMARK  168  A    between atoms: _409  and  _411
REMARK  169  A    between atoms: _411  and  _412
REMARK  170  A    between atoms: _411  and  _414
REMARK  171  A    between atoms: _414  and  _415
REMARK  172  A    between atoms: _420  and  _422
REMARK  173  A    between atoms: _422  and  _423
REMARK  174  A    between atoms: _422  and  _425
REMARK  175  A    between atoms: _428  and  _430
REMARK  176  A    between atoms: _430  and  _431
REMARK  177  A    between atoms: _430  and  _433
REMARK  178  A    between atoms: _433  and  _434
REMARK  179  A    between atoms: _437  and  _439
REMARK  180  A    between atoms: _439  and  _440
REMARK  181  A    between atoms: _439  and  _442
REMARK  182  A    between atoms: _442  and  _443
REMARK  183  A    between atoms: _446  and  _448
REMARK  184  A    between atoms: _448  and  _449
REMARK  185  A    between atoms: _448  and  _451
REMARK  186  A    between atoms: _451  and  _452
REMARK  187  A    between atoms: _456  and  _457
REMARK  188  A    between atoms: _462  and  _464
REMARK  189  A    between atoms: _464  and  _465
REMARK  190  A    between atoms: _464  and  _467
REMARK  191  A    between atoms: _470  and  _472
REMARK  192  A    between atoms: _472  and  _473
REMARK  193  A    between atoms: _472  and  _475
REMARK  194  A    between atoms: _475  and  _476
REMARK  195  A    between atoms: _479  and  _481
REMARK  196  A    between atoms: _481  and  _482
REMARK  197  A    between atoms: _481  and  _484
REMARK  198  A    between atoms: _484  and  _485
REMARK  199  A    between atoms: _488  and  _490
REMARK  200  A    between atoms: _490  and  _491
REMARK  201  A    between atoms: _493  and  _495
REMARK  202  A    between atoms: _495  and  _496
REMARK  203  A    between atoms: _495  and  _498
REMARK  204  A    between atoms: _498  and  _499
REMARK  205  A    between atoms: _499  and  _500
REMARK  206  A    between atoms: _500  and  _501
REMARK                            x       y       z     vdW  Elec       q    Type
REMARK                         _______ _______ _______ _____ _____    ______ ____
ROOT
ATOM      1  O   HOH     1       7.410  27.277   7.968  0.00  0.00    +0.000 OA
ENDROOT
TORSDOF 0
REMARK  Name = ../refined-set-2016/2fmb/2fmb_pocket.pdb
REMARK  206 active torsions:
REMARK  status: ('A' for Active; 'I' for Inactive)
REMARK    1  A    between atoms: _1  and  _3
REMARK    2  A    between atoms: _3  and  _4
REMARK    3  A    between atoms: _3  and  _6
REMARK    4  A    between atoms: _6  and  _7
REMARK    5  A    between atoms: _7  and  _8
REMARK    6  A    between atoms: _8  and  _9
REMARK    7  A    between atoms: _18  and  _20
REMARK    8  A    between atoms: _20  and  _21
REMARK    9  A    between atoms: _20  and  _23
REMARK   10  A    between atoms: _23  and  _24
REMARK   11  A    between atoms: _27  and  _29
REMARK   12  A    between atoms: _29  and  _30
REMARK   13  A    between atoms: _29  and  _32
REMARK   14  A    between atoms: _32  and  _33
REMARK   15  A    between atoms: _36  and  _38
REMARK   16  A    between atoms: _38  and  _39
REMARK   17  A    between atoms: _38  and  _41
REMARK   18  A    between atoms: _41  and  _42
REMARK   19  A    between atoms: _45  and  _47
REMARK   20  A    between atoms: _47  and  _48
REMARK   21  A    between atoms: _47  and  _50
REMARK   22  A    between atoms: _50  and  _51
REMARK   23  A    between atoms: _54  and  _56
REMARK   24  A    between atoms: _56  and  _57
REMARK   25  A    between atoms: _59  and  _61
REMARK   26  A    between atoms: _61  and  _62
REMARK   27  A    between atoms: _65  and  _67
REMARK   28  A    between atoms: _67  and  _68
REMARK   29  A    between atoms: _67  and  _70
REMARK   30  A    between atoms: _70  and  _71
REMARK   31  A    between atoms: _74  and  _76
REMARK   32  A    between atoms: _76  and  _77
REMARK   33  A    between atoms: _76  and  _79
REMARK   34  A    between atoms: _79  and  _80
REMARK   35  A    between atoms: _83  and  _85
REMARK   36  A    between atoms: _85  and  _86
REMARK   37  A    between atoms: _85  and  _88
REMARK   38  A    between atoms: _88  and  _89
REMARK   39  A    between atoms: _91  and  _93
REMARK   40  A    between atoms: _93  and  _94
REMARK   41  A    between atoms: _93  and  _96
REMARK   42  A    between atoms: _99  and  _101
REMARK   43  A    between atoms: _101  and  _102
REMARK   44  A    between atoms: _101  and  _104
REMARK   45  A    between atoms: _104  and  _105
REMARK   46  A    between atoms: _108  and  _110
REMARK   47  A    between atoms: _110  and  _111
REMARK   48  A    between atoms: _113  and  _115
REMARK   49  A    between atoms: _115  and  _116
REMARK   50  A    between atoms: _115  and  _118
REMARK   51  A    between atoms: _118  and  _119
REMARK   52  A    between atoms: _122  and  _124
REMARK   53  A    between atoms: _124  and  _125
REMARK   54  A    between atoms: _127  and  _129
REMARK   55  A    between atoms: _129  and  _130
REMARK   56  A    between atoms: _132  and  _134
REMARK   57  A    between atoms: _134  and  _135
REMARK   58  A    between atoms: _134  and  _137
REMARK   59  A    between atoms: _140  and  _142
REMARK   60  A    between atoms: _142  and  _143
REMARK   61  A    between atoms: _145  and  _147
REMARK   62  A    between atoms: _147  and  _148
REMARK   63  A    between atoms: _150  and  _152
REMARK   64  A    between atoms: _152  and  _153
REMARK   65  A    between atoms: _152  and  _155
REMARK   66  A    between atoms: _155  and  _156
REMARK   67  A    between atoms: _161  and  _163
REMARK   68  A    between atoms: _163  and  _164
REMARK   69  A    between atoms: _163  and  _166
REMARK   70  A    between atoms: _169  and  _171
REMARK   71  A    between atoms: _171  and  _172
REMARK   72  A    between atoms: _171  and  _174
REMARK   73  A    between atoms: _174  and  _175
REMARK   74  A    between atoms: _178  and  _180
REMARK   75  A    between atoms: _180  and  _181
REMARK   76  A    between atoms: _180  and  _183
REMARK   77  A    between atoms: _183  and  _184
REMARK   78  A    between atoms: _188  and  _189
REMARK   79  A    between atoms: _194  and  _196
REMARK   80  A    between atoms: _196  and  _197
REMARK   81  A    between atoms: _196  and  _199
REMARK   82  A    between atoms: _202  and  _204
REMARK   83  A    between atoms: _204  and  _205
REMARK   84  A    between atoms: _204  and  _207
REMARK   85  A    between atoms: _207  and  _208
REMARK   86  A    between atoms: _211  and  _213
REMARK   87  A    between atoms: _213  and  _214
REMARK   88  A    between atoms: _213  and  _216
REMARK   89  A    between atoms: _216  and  _217
REMARK   90  A    between atoms: _220  and  _222
REMARK   91  A    between atoms: _222  and  _223
REMARK   92  A    between atoms: _222  and  _225
REMARK   93  A    between atoms: _225  and  _226
REMARK   94  A    between atoms: _229  and  _231
REMARK   95  A    between atoms: _231  and  _232
REMARK   96  A    between atoms: _234  and  _236
REMARK   97  A    between atoms: _236  and  _237
REMARK   98  A    between atoms: _236  and  _239
REMARK   99  A    between atoms: _239  and  _240
REMARK  100  A    between atoms: _240  and  _241
REMARK  101  A    between atoms: _241  and  _242
REMARK  102  A    between atoms: _251  and  _253
REMARK  103  A    between atoms: _253  and  _254
REMARK  104  A    between atoms: _253  and  _256
REMARK  105  A    between atoms: _256  and  _257
REMARK  106  A    between atoms: _257  and  _258
REMARK  107  A    between atoms: _258  and  _259
REMARK  108  A    between atoms: _268  and  _270
REMARK  109  A    between atoms: _270  and  _271
REMARK  110  A    between atoms: _270  and  _273
REMARK  111  A    between atoms: _273  and  _274
REMARK  112  A    between atoms: _277  and  _279
REMARK  113  A    between atoms: _279  and  _280
REMARK  114  A    between atoms: _279  and  _282
REMARK  115  A    between atoms: _282  and  _283
REMARK  116  A    between atoms: _286  and  _288
REMARK  117  A    between atoms: _288  and  _289
REMARK  118  A    between atoms: _288  and  _291
REMARK  119  A    between atoms: _291  and  _292
REMARK  120  A    between atoms: _295  and  _297
REMARK  121  A    between atoms: _297  and  _298
REMARK  122  A    between atoms: _297  and  _300
REMARK  123  A    between atoms: _300  and  _301
REMARK  124  A    between atoms: _304  and  _306
REMARK  125  A    between atoms: _306  and  _307
REMARK  126  A    between atoms: _306  and  _309
REMARK  127  A    between atoms: _309  and  _310
REMARK  128  A    between atoms: _313  and  _315
REMARK  129  A    between atoms: _315  and  _316
REMARK  130  A    between atoms: _318  and  _320
REMARK  131  A    between atoms: _320  and  _321
REMARK  132  A    between atoms: _324  and  _326
REMARK  133  A    between atoms: _326  and  _327
REMARK  134  A    between atoms: _326  and  _329
REMARK  135  A    between atoms: _329  and  _330
REMARK  136  A    between atoms: _333  and  _335
REMARK  137  A    between atoms: _335  and  _336
REMARK  138  A    between atoms: _335  and  _338
REMARK  139  A    between atoms: _338  and  _339
REMARK  140  A    between atoms: _342  and  _344
REMARK  141  A    between atoms: _344  and  _345
REMARK  142  A    between atoms: _344  and  _347
REMARK  143  A    between atoms: _347  and  _348
REMARK  144  A    between atoms: _350  and  _352
REMARK  145  A    between atoms: _352  and  _353
REMARK  146  A    between atoms: _352  and  _355
REMARK  147  A    between atoms: _358  and  _360
REMARK  148  A    between atoms: _360  and  _361
REMARK  149  A    between atoms: _360  and  _363
REMARK  150  A    between atoms: _363  and  _364
REMARK  151  A    between atoms: _367  and  _369
REMARK  152  A    between atoms: _369  and  _370
REMARK  153  A    between atoms: _372  and  _374
REMARK  154  A    between atoms: _374  and  _375
REMARK  155  A    between atoms: _374  and  _377
REMARK  156  A    between atoms: _377  and  _378
REMARK  157  A    between atoms: _381  and  _383
REMARK  158  A    between atoms: _383  and  _384
REMARK  159  A    between atoms: _386  and  _388
REMARK  160  A    between atoms: _388  and  _389
REMARK  161  A    between atoms: _391  and  _393
REMARK  162  A    between atoms: _393  and  _394
REMARK  163  A    between atoms: _393  and  _396
REMARK  164  A    between atoms: _399  and  _401
REMARK  165  A    between atoms: _401  and  _402
REMARK  166  A    between atoms: _404  and  _406
REMARK  167  A    between atoms: _406  and  _407
REMARK  168  A    between atoms: _409  and  _411
REMARK  169  A    between atoms: _411  and  _412
REMARK  170  A    between atoms: _411  and  _414
REMARK  171  A    between atoms: _414  and  _415
REMARK  172  A    between atoms: _420  and  _422
REMARK  173  A    between atoms: _422  and  _423
REMARK  174  A    between atoms: _422  and  _425
REMARK  175  A    between atoms: _428  and  _430
REMARK  176  A    between atoms: _430  and  _431
REMARK  177  A    between atoms: _430  and  _433
REMARK  178  A    between atoms: _433  and  _434
REMARK  179  A    between atoms: _437  and  _439
REMARK  180  A    between atoms: _439  and  _440
REMARK  181  A    between atoms: _439  and  _442
REMARK  182  A    between atoms: _442  and  _443
REMARK  183  A    between atoms: _446  and  _448
REMARK  184  A    between atoms: _448  and  _449
REMARK  185  A    between atoms: _448  and  _451
REMARK  186  A    between atoms: _451  and  _452
REMARK  187  A    between atoms: _456  and  _457
REMARK  188  A    between atoms: _462  and  _464
REMARK  189  A    between atoms: _464  and  _465
REMARK  190  A    between atoms: _464  and  _467
REMARK  191  A    between atoms: _470  and  _472
REMARK  192  A    between atoms: _472  and  _473
REMARK  193  A    between atoms: _472  and  _475
REMARK  194  A    between atoms: _475  and  _476
REMARK  195  A    between atoms: _479  and  _481
REMARK  196  A    between atoms: _481  and  _482
REMARK  197  A    between atoms: _481  and  _484
REMARK  198  A    between atoms: _484  and  _485
REMARK  199  A    between atoms: _488  and  _490
REMARK  200  A    between atoms: _490  and  _491
REMARK  201  A    between atoms: _493  and  _495
REMARK  202  A    between atoms: _495  and  _496
REMARK  203  A    between atoms: _495  and  _498
REMARK  204  A    between atoms: _498  and  _499
REMARK  205  A    between atoms: _499  and  _500
REMARK  206  A    between atoms: _500  and  _501
REMARK                            x       y       z     vdW  Elec       q    Type
REMARK                         _______ _______ _______ _____ _____    ______ ____
ROOT
ATOM      1  O   HOH     1     -11.082  14.805   1.720  0.00  0.00    +0.000 OA
ENDROOT
TORSDOF 0
REMARK  Name = ../refined-set-2016/2fmb/2fmb_pocket.pdb
REMARK  206 active torsions:
REMARK  status: ('A' for Active; 'I' for Inactive)
REMARK    1  A    between atoms: _1  and  _3
REMARK    2  A    between atoms: _3  and  _4
REMARK    3  A    between atoms: _3  and  _6
REMARK    4  A    between atoms: _6  and  _7
REMARK    5  A    between atoms: _7  and  _8
REMARK    6  A    between atoms: _8  and  _9
REMARK    7  A    between atoms: _18  and  _20
REMARK    8  A    between atoms: _20  and  _21
REMARK    9  A    between atoms: _20  and  _23
REMARK   10  A    between atoms: _23  and  _24
REMARK   11  A    between atoms: _27  and  _29
REMARK   12  A    between atoms: _29  and  _30
REMARK   13  A    between atoms: _29  and  _32
REMARK   14  A    between atoms: _32  and  _33
REMARK   15  A    between atoms: _36  and  _38
REMARK   16  A    between atoms: _38  and  _39
REMARK   17  A    between atoms: _38  and  _41
REMARK   18  A    between atoms: _41  and  _42
REMARK   19  A    between atoms: _45  and  _47
REMARK   20  A    between atoms: _47  and  _48
REMARK   21  A    between atoms: _47  and  _50
REMARK   22  A    between atoms: _50  and  _51
REMARK   23  A    between atoms: _54  and  _56
REMARK   24  A    between atoms: _56  and  _57
REMARK   25  A    between atoms: _59  and  _61
REMARK   26  A    between atoms: _61  and  _62
REMARK   27  A    between atoms: _65  and  _67
REMARK   28  A    between atoms: _67  and  _68
REMARK   29  A    between atoms: _67  and  _70
REMARK   30  A    between atoms: _70  and  _71
REMARK   31  A    between atoms: _74  and  _76
REMARK   32  A    between atoms: _76  and  _77
REMARK   33  A    between atoms: _76  and  _79
REMARK   34  A    between atoms: _79  and  _80
REMARK   35  A    between atoms: _83  and  _85
REMARK   36  A    between atoms: _85  and  _86
REMARK   37  A    between atoms: _85  and  _88
REMARK   38  A    between atoms: _88  and  _89
REMARK   39  A    between atoms: _91  and  _93
REMARK   40  A    between atoms: _93  and  _94
REMARK   41  A    between atoms: _93  and  _96
REMARK   42  A    between atoms: _99  and  _101
REMARK   43  A    between atoms: _101  and  _102
REMARK   44  A    between atoms: _101  and  _104
REMARK   45  A    between atoms: _104  and  _105
REMARK   46  A    between atoms: _108  and  _110
REMARK   47  A    between atoms: _110  and  _111
REMARK   48  A    between atoms: _113  and  _115
REMARK   49  A    between atoms: _115  and  _116
REMARK   50  A    between atoms: _115  and  _118
REMARK   51  A    between atoms: _118  and  _119
REMARK   52  A    between atoms: _122  and  _124
REMARK   53  A    between atoms: _124  and  _125
REMARK   54  A    between atoms: _127  and  _129
REMARK   55  A    between atoms: _129  and  _130
REMARK   56  A    between atoms: _132  and  _134
REMARK   57  A    between atoms: _134  and  _135
REMARK   58  A    between atoms: _134  and  _137
REMARK   59  A    between atoms: _140  and  _142
REMARK   60  A    between atoms: _142  and  _143
REMARK   61  A    between atoms: _145  and  _147
REMARK   62  A    between atoms: _147  and  _148
REMARK   63  A    between atoms: _150  and  _152
REMARK   64  A    between atoms: _152  and  _153
REMARK   65  A    between atoms: _152  and  _155
REMARK   66  A    between atoms: _155  and  _156
REMARK   67  A    between atoms: _161  and  _163
REMARK   68  A    between atoms: _163  and  _164
REMARK   69  A    between atoms: _163  and  _166
REMARK   70  A    between atoms: _169  and  _171
REMARK   71  A    between atoms: _171  and  _172
REMARK   72  A    between atoms: _171  and  _174
REMARK   73  A    between atoms: _174  and  _175
REMARK   74  A    between atoms: _178  and  _180
REMARK   75  A    between atoms: _180  and  _181
REMARK   76  A    between atoms: _180  and  _183
REMARK   77  A    between atoms: _183  and  _184
REMARK   78  A    between atoms: _188  and  _189
REMARK   79  A    between atoms: _194  and  _196
REMARK   80  A    between atoms: _196  and  _197
REMARK   81  A    between atoms: _196  and  _199
REMARK   82  A    between atoms: _202  and  _204
REMARK   83  A    between atoms: _204  and  _205
REMARK   84  A    between atoms: _204  and  _207
REMARK   85  A    between atoms: _207  and  _208
REMARK   86  A    between atoms: _211  and  _213
REMARK   87  A    between atoms: _213  and  _214
REMARK   88  A    between atoms: _213  and  _216
REMARK   89  A    between atoms: _216  and  _217
REMARK   90  A    between atoms: _220  and  _222
REMARK   91  A    between atoms: _222  and  _223
REMARK   92  A    between atoms: _222  and  _225
REMARK   93  A    between atoms: _225  and  _226
REMARK   94  A    between atoms: _229  and  _231
REMARK   95  A    between atoms: _231  and  _232
REMARK   96  A    between atoms: _234  and  _236
REMARK   97  A    between atoms: _236  and  _237
REMARK   98  A    between atoms: _236  and  _239
REMARK   99  A    between atoms: _239  and  _240
REMARK  100  A    between atoms: _240  and  _241
REMARK  101  A    between atoms: _241  and  _242
REMARK  102  A    between atoms: _251  and  _253
REMARK  103  A    between atoms: _253  and  _254
REMARK  104  A    between atoms: _253  and  _256
REMARK  105  A    between atoms: _256  and  _257
REMARK  106  A    between atoms: _257  and  _258
REMARK  107  A    between atoms: _258  and  _259
REMARK  108  A    between atoms: _268  and  _270
REMARK  109  A    between atoms: _270  and  _271
REMARK  110  A    between atoms: _270  and  _273
REMARK  111  A    between atoms: _273  and  _274
REMARK  112  A    between atoms: _277  and  _279
REMARK  113  A    between atoms: _279  and  _280
REMARK  114  A    between atoms: _279  and  _282
REMARK  115  A    between atoms: _282  and  _283
REMARK  116  A    between atoms: _286  and  _288
REMARK  117  A    between atoms: _288  and  _289
REMARK  118  A    between atoms: _288  and  _291
REMARK  119  A    between atoms: _291  and  _292
REMARK  120  A    between atoms: _295  and  _297
REMARK  121  A    between atoms: _297  and  _298
REMARK  122  A    between atoms: _297  and  _300
REMARK  123  A    between atoms: _300  and  _301
REMARK  124  A    between atoms: _304  and  _306
REMARK  125  A    between atoms: _306  and  _307
REMARK  126  A    between atoms: _306  and  _309
REMARK  127  A    between atoms: _309  and  _310
REMARK  128  A    between atoms: _313  and  _315
REMARK  129  A    between atoms: _315  and  _316
REMARK  130  A    between atoms: _318  and  _320
REMARK  131  A    between atoms: _320  and  _321
REMARK  132  A    between atoms: _324  and  _326
REMARK  133  A    between atoms: _326  and  _327
REMARK  134  A    between atoms: _326  and  _329
REMARK  135  A    between atoms: _329  and  _330
REMARK  136  A    between atoms: _333  and  _335
REMARK  137  A    between atoms: _335  and  _336
REMARK  138  A    between atoms: _335  and  _338
REMARK  139  A    between atoms: _338  and  _339
REMARK  140  A    between atoms: _342  and  _344
REMARK  141  A    between atoms: _344  and  _345
REMARK  142  A    between atoms: _344  and  _347
REMARK  143  A    between atoms: _347  and  _348
REMARK  144  A    between atoms: _350  and  _352
REMARK  145  A    between atoms: _352  and  _353
REMARK  146  A    between atoms: _352  and  _355
REMARK  147  A    between atoms: _358  and  _360
REMARK  148  A    between atoms: _360  and  _361
REMARK  149  A    between atoms: _360  and  _363
REMARK  150  A    between atoms: _363  and  _364
REMARK  151  A    between atoms: _367  and  _369
REMARK  152  A    between atoms: _369  and  _370
REMARK  153  A    between atoms: _372  and  _374
REMARK  154  A    between atoms: _374  and  _375
REMARK  155  A    between atoms: _374  and  _377
REMARK  156  A    between atoms: _377  and  _378
REMARK  157  A    between atoms: _381  and  _383
REMARK  158  A    between atoms: _383  and  _384
REMARK  159  A    between atoms: _386  and  _388
REMARK  160  A    between atoms: _388  and  _389
REMARK  161  A    between atoms: _391  and  _393
REMARK  162  A    between atoms: _393  and  _394
REMARK  163  A    between atoms: _393  and  _396
REMARK  164  A    between atoms: _399  and  _401
REMARK  165  A    between atoms: _401  and  _402
REMARK  166  A    between atoms: _404  and  _406
REMARK  167  A    between atoms: _406  and  _407
REMARK  168  A    between atoms: _409  and  _411
REMARK  169  A    between atoms: _411  and  _412
REMARK  170  A    between atoms: _411  and  _414
REMARK  171  A    between atoms: _414  and  _415
REMARK  172  A    between atoms: _420  and  _422
REMARK  173  A    between atoms: _422  and  _423
REMARK  174  A    between atoms: _422  and  _425
REMARK  175  A    between atoms: _428  and  _430
REMARK  176  A    between atoms: _430  and  _431
REMARK  177  A    between atoms: _430  and  _433
REMARK  178  A    between atoms: _433  and  _434
REMARK  179  A    between atoms: _437  and  _439
REMARK  180  A    between atoms: _439  and  _440
REMARK  181  A    between atoms: _439  and  _442
REMARK  182  A    between atoms: _442  and  _443
REMARK  183  A    between atoms: _446  and  _448
REMARK  184  A    between atoms: _448  and  _449
REMARK  185  A    between atoms: _448  and  _451
REMARK  186  A    between atoms: _451  and  _452
REMARK  187  A    between atoms: _456  and  _457
REMARK  188  A    between atoms: _462  and  _464
REMARK  189  A    between atoms: _464  and  _465
REMARK  190  A    between atoms: _464  and  _467
REMARK  191  A    between atoms: _470  and  _472
REMARK  192  A    between atoms: _472  and  _473
REMARK  193  A    between atoms: _472  and  _475
REMARK  194  A    between atoms: _475  and  _476
REMARK  195  A    between atoms: _479  and  _481
REMARK  196  A    between atoms: _481  and  _482
REMARK  197  A    between atoms: _481  and  _484
REMARK  198  A    between atoms: _484  and  _485
REMARK  199  A    between atoms: _488  and  _490
REMARK  200  A    between atoms: _490  and  _491
REMARK  201  A    between atoms: _493  and  _495
REMARK  202  A    between atoms: _495  and  _496
REMARK  203  A    between atoms: _495  and  _498
REMARK  204  A    between atoms: _498  and  _499
REMARK  205  A    between atoms: _499  and  _500
REMARK  206  A    between atoms: _500  and  _501
REMARK                            x       y       z     vdW  Elec       q    Type
REMARK                         _______ _______ _______ _____ _____    ______ ____
ROOT
ATOM      1  O   HOH     1       6.612  15.796  12.744  0.00  0.00    +0.000 OA
ENDROOT
TORSDOF 0
REMARK  Name = ../refined-set-2016/2fmb/2fmb_pocket.pdb
REMARK  206 active torsions:
REMARK  status: ('A' for Active; 'I' for Inactive)
REMARK    1  A    between atoms: _1  and  _3
REMARK    2  A    between atoms: _3  and  _4
REMARK    3  A    between atoms: _3  and  _6
REMARK    4  A    between atoms: _6  and  _7
REMARK    5  A    between atoms: _7  and  _8
REMARK    6  A    between atoms: _8  and  _9
REMARK    7  A    between atoms: _18  and  _20
REMARK    8  A    between atoms: _20  and  _21
REMARK    9  A    between atoms: _20  and  _23
REMARK   10  A    between atoms: _23  and  _24
REMARK   11  A    between atoms: _27  and  _29
REMARK   12  A    between atoms: _29  and  _30
REMARK   13  A    between atoms: _29  and  _32
REMARK   14  A    between atoms: _32  and  _33
REMARK   15  A    between atoms: _36  and  _38
REMARK   16  A    between atoms: _38  and  _39
REMARK   17  A    between atoms: _38  and  _41
REMARK   18  A    between atoms: _41  and  _42
REMARK   19  A    between atoms: _45  and  _47
REMARK   20  A    between atoms: _47  and  _48
REMARK   21  A    between atoms: _47  and  _50
REMARK   22  A    between atoms: _50  and  _51
REMARK   23  A    between atoms: _54  and  _56
REMARK   24  A    between atoms: _56  and  _57
REMARK   25  A    between atoms: _59  and  _61
REMARK   26  A    between atoms: _61  and  _62
REMARK   27  A    between atoms: _65  and  _67
REMARK   28  A    between atoms: _67  and  _68
REMARK   29  A    between atoms: _67  and  _70
REMARK   30  A    between atoms: _70  and  _71
REMARK   31  A    between atoms: _74  and  _76
REMARK   32  A    between atoms: _76  and  _77
REMARK   33  A    between atoms: _76  and  _79
REMARK   34  A    between atoms: _79  and  _80
REMARK   35  A    between atoms: _83  and  _85
REMARK   36  A    between atoms: _85  and  _86
REMARK   37  A    between atoms: _85  and  _88
REMARK   38  A    between atoms: _88  and  _89
REMARK   39  A    between atoms: _91  and  _93
REMARK   40  A    between atoms: _93  and  _94
REMARK   41  A    between atoms: _93  and  _96
REMARK   42  A    between atoms: _99  and  _101
REMARK   43  A    between atoms: _101  and  _102
REMARK   44  A    between atoms: _101  and  _104
REMARK   45  A    between atoms: _104  and  _105
REMARK   46  A    between atoms: _108  and  _110
REMARK   47  A    between atoms: _110  and  _111
REMARK   48  A    between atoms: _113  and  _115
REMARK   49  A    between atoms: _115  and  _116
REMARK   50  A    between atoms: _115  and  _118
REMARK   51  A    between atoms: _118  and  _119
REMARK   52  A    between atoms: _122  and  _124
REMARK   53  A    between atoms: _124  and  _125
REMARK   54  A    between atoms: _127  and  _129
REMARK   55  A    between atoms: _129  and  _130
REMARK   56  A    between atoms: _132  and  _134
REMARK   57  A    between atoms: _134  and  _135
REMARK   58  A    between atoms: _134  and  _137
REMARK   59  A    between atoms: _140  and  _142
REMARK   60  A    between atoms: _142  and  _143
REMARK   61  A    between atoms: _145  and  _147
REMARK   62  A    between atoms: _147  and  _148
REMARK   63  A    between atoms: _150  and  _152
REMARK   64  A    between atoms: _152  and  _153
REMARK   65  A    between atoms: _152  and  _155
REMARK   66  A    between atoms: _155  and  _156
REMARK   67  A    between atoms: _161  and  _163
REMARK   68  A    between atoms: _163  and  _164
REMARK   69  A    between atoms: _163  and  _166
REMARK   70  A    between atoms: _169  and  _171
REMARK   71  A    between atoms: _171  and  _172
REMARK   72  A    between atoms: _171  and  _174
REMARK   73  A    between atoms: _174  and  _175
REMARK   74  A    between atoms: _178  and  _180
REMARK   75  A    between atoms: _180  and  _181
REMARK   76  A    between atoms: _180  and  _183
REMARK   77  A    between atoms: _183  and  _184
REMARK   78  A    between atoms: _188  and  _189
REMARK   79  A    between atoms: _194  and  _196
REMARK   80  A    between atoms: _196  and  _197
REMARK   81  A    between atoms: _196  and  _199
REMARK   82  A    between atoms: _202  and  _204
REMARK   83  A    between atoms: _204  and  _205
REMARK   84  A    between atoms: _204  and  _207
REMARK   85  A    between atoms: _207  and  _208
REMARK   86  A    between atoms: _211  and  _213
REMARK   87  A    between atoms: _213  and  _214
REMARK   88  A    between atoms: _213  and  _216
REMARK   89  A    between atoms: _216  and  _217
REMARK   90  A    between atoms: _220  and  _222
REMARK   91  A    between atoms: _222  and  _223
REMARK   92  A    between atoms: _222  and  _225
REMARK   93  A    between atoms: _225  and  _226
REMARK   94  A    between atoms: _229  and  _231
REMARK   95  A    between atoms: _231  and  _232
REMARK   96  A    between atoms: _234  and  _236
REMARK   97  A    between atoms: _236  and  _237
REMARK   98  A    between atoms: _236  and  _239
REMARK   99  A    between atoms: _239  and  _240
REMARK  100  A    between atoms: _240  and  _241
REMARK  101  A    between atoms: _241  and  _242
REMARK  102  A    between atoms: _251  and  _253
REMARK  103  A    between atoms: _253  and  _254
REMARK  104  A    between atoms: _253  and  _256
REMARK  105  A    between atoms: _256  and  _257
REMARK  106  A    between atoms: _257  and  _258
REMARK  107  A    between atoms: _258  and  _259
REMARK  108  A    between atoms: _268  and  _270
REMARK  109  A    between atoms: _270  and  _271
REMARK  110  A    between atoms: _270  and  _273
REMARK  111  A    between atoms: _273  and  _274
REMARK  112  A    between atoms: _277  and  _279
REMARK  113  A    between atoms: _279  and  _280
REMARK  114  A    between atoms: _279  and  _282
REMARK  115  A    between atoms: _282  and  _283
REMARK  116  A    between atoms: _286  and  _288
REMARK  117  A    between atoms: _288  and  _289
REMARK  118  A    between atoms: _288  and  _291
REMARK  119  A    between atoms: _291  and  _292
REMARK  120  A    between atoms: _295  and  _297
REMARK  121  A    between atoms: _297  and  _298
REMARK  122  A    between atoms: _297  and  _300
REMARK  123  A    between atoms: _300  and  _301
REMARK  124  A    between atoms: _304  and  _306
REMARK  125  A    between atoms: _306  and  _307
REMARK  126  A    between atoms: _306  and  _309
REMARK  127  A    between atoms: _309  and  _310
REMARK  128  A    between atoms: _313  and  _315
REMARK  129  A    between atoms: _315  and  _316
REMARK  130  A    between atoms: _318  and  _320
REMARK  131  A    between atoms: _320  and  _321
REMARK  132  A    between atoms: _324  and  _326
REMARK  133  A    between atoms: _326  and  _327
REMARK  134  A    between atoms: _326  and  _329
REMARK  135  A    between atoms: _329  and  _330
REMARK  136  A    between atoms: _333  and  _335
REMARK  137  A    between atoms: _335  and  _336
REMARK  138  A    between atoms: _335  and  _338
REMARK  139  A    between atoms: _338  and  _339
REMARK  140  A    between atoms: _342  and  _344
REMARK  141  A    between atoms: _344  and  _345
REMARK  142  A    between atoms: _344  and  _347
REMARK  143  A    between atoms: _347  and  _348
REMARK  144  A    between atoms: _350  and  _352
REMARK  145  A    between atoms: _352  and  _353
REMARK  146  A    between atoms: _352  and  _355
REMARK  147  A    between atoms: _358  and  _360
REMARK  148  A    between atoms: _360  and  _361
REMARK  149  A    between atoms: _360  and  _363
REMARK  150  A    between atoms: _363  and  _364
REMARK  151  A    between atoms: _367  and  _369
REMARK  152  A    between atoms: _369  and  _370
REMARK  153  A    between atoms: _372  and  _374
REMARK  154  A    between atoms: _374  and  _375
REMARK  155  A    between atoms: _374  and  _377
REMARK  156  A    between atoms: _377  and  _378
REMARK  157  A    between atoms: _381  and  _383
REMARK  158  A    between atoms: _383  and  _384
REMARK  159  A    between atoms: _386  and  _388
REMARK  160  A    between atoms: _388  and  _389
REMARK  161  A    between atoms: _391  and  _393
REMARK  162  A    between atoms: _393  and  _394
REMARK  163  A    between atoms: _393  and  _396
REMARK  164  A    between atoms: _399  and  _401
REMARK  165  A    between atoms: _401  and  _402
REMARK  166  A    between atoms: _404  and  _406
REMARK  167  A    between atoms: _406  and  _407
REMARK  168  A    between atoms: _409  and  _411
REMARK  169  A    between atoms: _411  and  _412
REMARK  170  A    between atoms: _411  and  _414
REMARK  171  A    between atoms: _414  and  _415
REMARK  172  A    between atoms: _420  and  _422
REMARK  173  A    between atoms: _422  and  _423
REMARK  174  A    between atoms: _422  and  _425
REMARK  175  A    between atoms: _428  and  _430
REMARK  176  A    between atoms: _430  and  _431
REMARK  177  A    between atoms: _430  and  _433
REMARK  178  A    between atoms: _433  and  _434
REMARK  179  A    between atoms: _437  and  _439
REMARK  180  A    between atoms: _439  and  _440
REMARK  181  A    between atoms: _439  and  _442
REMARK  182  A    between atoms: _442  and  _443
REMARK  183  A    between atoms: _446  and  _448
REMARK  184  A    between atoms: _448  and  _449
REMARK  185  A    between atoms: _448  and  _451
REMARK  186  A    between atoms: _451  and  _452
REMARK  187  A    between atoms: _456  and  _457
REMARK  188  A    between atoms: _462  and  _464
REMARK  189  A    between atoms: _464  and  _465
REMARK  190  A    between atoms: _464  and  _467
REMARK  191  A    between atoms: _470  and  _472
REMARK  192  A    between atoms: _472  and  _473
REMARK  193  A    between atoms: _472  and  _475
REMARK  194  A    between atoms: _475  and  _476
REMARK  195  A    between atoms: _479  and  _481
REMARK  196  A    between atoms: _481  and  _482
REMARK  197  A    between atoms: _481  and  _484
REMARK  198  A    between atoms: _484  and  _485
REMARK  199  A    between atoms: _488  and  _490
REMARK  200  A    between atoms: _490  and  _491
REMARK  201  A    between atoms: _493  and  _495
REMARK  202  A    between atoms: _495  and  _496
REMARK  203  A    between atoms: _495  and  _498
REMARK  204  A    between atoms: _498  and  _499
REMARK  205  A    between atoms: _499  and  _500
REMARK  206  A    between atoms: _500  and  _501
REMARK                            x       y       z     vdW  Elec       q    Type
REMARK                         _______ _______ _______ _____ _____    ______ ____
ROOT
ATOM      1  O   HOH     1      -6.071  12.955  -2.702  0.00  0.00    +0.000 OA
ENDROOT
TORSDOF 0
REMARK  Name = ../refined-set-2016/2fmb/2fmb_pocket.pdb
REMARK  206 active torsions:
REMARK  status: ('A' for Active; 'I' for Inactive)
REMARK    1  A    between atoms: _1  and  _3
REMARK    2  A    between atoms: _3  and  _4
REMARK    3  A    between atoms: _3  and  _6
REMARK    4  A    between atoms: _6  and  _7
REMARK    5  A    between atoms: _7  and  _8
REMARK    6  A    between atoms: _8  and  _9
REMARK    7  A    between atoms: _18  and  _20
REMARK    8  A    between atoms: _20  and  _21
REMARK    9  A    between atoms: _20  and  _23
REMARK   10  A    between atoms: _23  and  _24
REMARK   11  A    between atoms: _27  and  _29
REMARK   12  A    between atoms: _29  and  _30
REMARK   13  A    between atoms: _29  and  _32
REMARK   14  A    between atoms: _32  and  _33
REMARK   15  A    between atoms: _36  and  _38
REMARK   16  A    between atoms: _38  and  _39
REMARK   17  A    between atoms: _38  and  _41
REMARK   18  A    between atoms: _41  and  _42
REMARK   19  A    between atoms: _45  and  _47
REMARK   20  A    between atoms: _47  and  _48
REMARK   21  A    between atoms: _47  and  _50
REMARK   22  A    between atoms: _50  and  _51
REMARK   23  A    between atoms: _54  and  _56
REMARK   24  A    between atoms: _56  and  _57
REMARK   25  A    between atoms: _59  and  _61
REMARK   26  A    between atoms: _61  and  _62
REMARK   27  A    between atoms: _65  and  _67
REMARK   28  A    between atoms: _67  and  _68
REMARK   29  A    between atoms: _67  and  _70
REMARK   30  A    between atoms: _70  and  _71
REMARK   31  A    between atoms: _74  and  _76
REMARK   32  A    between atoms: _76  and  _77
REMARK   33  A    between atoms: _76  and  _79
REMARK   34  A    between atoms: _79  and  _80
REMARK   35  A    between atoms: _83  and  _85
REMARK   36  A    between atoms: _85  and  _86
REMARK   37  A    between atoms: _85  and  _88
REMARK   38  A    between atoms: _88  and  _89
REMARK   39  A    between atoms: _91  and  _93
REMARK   40  A    between atoms: _93  and  _94
REMARK   41  A    between atoms: _93  and  _96
REMARK   42  A    between atoms: _99  and  _101
REMARK   43  A    between atoms: _101  and  _102
REMARK   44  A    between atoms: _101  and  _104
REMARK   45  A    between atoms: _104  and  _105
REMARK   46  A    between atoms: _108  and  _110
REMARK   47  A    between atoms: _110  and  _111
REMARK   48  A    between atoms: _113  and  _115
REMARK   49  A    between atoms: _115  and  _116
REMARK   50  A    between atoms: _115  and  _118
REMARK   51  A    between atoms: _118  and  _119
REMARK   52  A    between atoms: _122  and  _124
REMARK   53  A    between atoms: _124  and  _125
REMARK   54  A    between atoms: _127  and  _129
REMARK   55  A    between atoms: _129  and  _130
REMARK   56  A    between atoms: _132  and  _134
REMARK   57  A    between atoms: _134  and  _135
REMARK   58  A    between atoms: _134  and  _137
REMARK   59  A    between atoms: _140  and  _142
REMARK   60  A    between atoms: _142  and  _143
REMARK   61  A    between atoms: _145  and  _147
REMARK   62  A    between atoms: _147  and  _148
REMARK   63  A    between atoms: _150  and  _152
REMARK   64  A    between atoms: _152  and  _153
REMARK   65  A    between atoms: _152  and  _155
REMARK   66  A    between atoms: _155  and  _156
REMARK   67  A    between atoms: _161  and  _163
REMARK   68  A    between atoms: _163  and  _164
REMARK   69  A    between atoms: _163  and  _166
REMARK   70  A    between atoms: _169  and  _171
REMARK   71  A    between atoms: _171  and  _172
REMARK   72  A    between atoms: _171  and  _174
REMARK   73  A    between atoms: _174  and  _175
REMARK   74  A    between atoms: _178  and  _180
REMARK   75  A    between atoms: _180  and  _181
REMARK   76  A    between atoms: _180  and  _183
REMARK   77  A    between atoms: _183  and  _184
REMARK   78  A    between atoms: _188  and  _189
REMARK   79  A    between atoms: _194  and  _196
REMARK   80  A    between atoms: _196  and  _197
REMARK   81  A    between atoms: _196  and  _199
REMARK   82  A    between atoms: _202  and  _204
REMARK   83  A    between atoms: _204  and  _205
REMARK   84  A    between atoms: _204  and  _207
REMARK   85  A    between atoms: _207  and  _208
REMARK   86  A    between atoms: _211  and  _213
REMARK   87  A    between atoms: _213  and  _214
REMARK   88  A    between atoms: _213  and  _216
REMARK   89  A    between atoms: _216  and  _217
REMARK   90  A    between atoms: _220  and  _222
REMARK   91  A    between atoms: _222  and  _223
REMARK   92  A    between atoms: _222  and  _225
REMARK   93  A    between atoms: _225  and  _226
REMARK   94  A    between atoms: _229  and  _231
REMARK   95  A    between atoms: _231  and  _232
REMARK   96  A    between atoms: _234  and  _236
REMARK   97  A    between atoms: _236  and  _237
REMARK   98  A    between atoms: _236  and  _239
REMARK   99  A    between atoms: _239  and  _240
REMARK  100  A    between atoms: _240  and  _241
REMARK  101  A    between atoms: _241  and  _242
REMARK  102  A    between atoms: _251  and  _253
REMARK  103  A    between atoms: _253  and  _254
REMARK  104  A    between atoms: _253  and  _256
REMARK  105  A    between atoms: _256  and  _257
REMARK  106  A    between atoms: _257  and  _258
REMARK  107  A    between atoms: _258  and  _259
REMARK  108  A    between atoms: _268  and  _270
REMARK  109  A    between atoms: _270  and  _271
REMARK  110  A    between atoms: _270  and  _273
REMARK  111  A    between atoms: _273  and  _274
REMARK  112  A    between atoms: _277  and  _279
REMARK  113  A    between atoms: _279  and  _280
REMARK  114  A    between atoms: _279  and  _282
REMARK  115  A    between atoms: _282  and  _283
REMARK  116  A    between atoms: _286  and  _288
REMARK  117  A    between atoms: _288  and  _289
REMARK  118  A    between atoms: _288  and  _291
REMARK  119  A    between atoms: _291  and  _292
REMARK  120  A    between atoms: _295  and  _297
REMARK  121  A    between atoms: _297  and  _298
REMARK  122  A    between atoms: _297  and  _300
REMARK  123  A    between atoms: _300  and  _301
REMARK  124  A    between atoms: _304  and  _306
REMARK  125  A    between atoms: _306  and  _307
REMARK  126  A    between atoms: _306  and  _309
REMARK  127  A    between atoms: _309  and  _310
REMARK  128  A    between atoms: _313  and  _315
REMARK  129  A    between atoms: _315  and  _316
REMARK  130  A    between atoms: _318  and  _320
REMARK  131  A    between atoms: _320  and  _321
REMARK  132  A    between atoms: _324  and  _326
REMARK  133  A    between atoms: _326  and  _327
REMARK  134  A    between atoms: _326  and  _329
REMARK  135  A    between atoms: _329  and  _330
REMARK  136  A    between atoms: _333  and  _335
REMARK  137  A    between atoms: _335  and  _336
REMARK  138  A    between atoms: _335  and  _338
REMARK  139  A    between atoms: _338  and  _339
REMARK  140  A    between atoms: _342  and  _344
REMARK  141  A    between atoms: _344  and  _345
REMARK  142  A    between atoms: _344  and  _347
REMARK  143  A    between atoms: _347  and  _348
REMARK  144  A    between atoms: _350  and  _352
REMARK  145  A    between atoms: _352  and  _353
REMARK  146  A    between atoms: _352  and  _355
REMARK  147  A    between atoms: _358  and  _360
REMARK  148  A    between atoms: _360  and  _361
REMARK  149  A    between atoms: _360  and  _363
REMARK  150  A    between atoms: _363  and  _364
REMARK  151  A    between atoms: _367  and  _369
REMARK  152  A    between atoms: _369  and  _370
REMARK  153  A    between atoms: _372  and  _374
REMARK  154  A    between atoms: _374  and  _375
REMARK  155  A    between atoms: _374  and  _377
REMARK  156  A    between atoms: _377  and  _378
REMARK  157  A    between atoms: _381  and  _383
REMARK  158  A    between atoms: _383  and  _384
REMARK  159  A    between atoms: _386  and  _388
REMARK  160  A    between atoms: _388  and  _389
REMARK  161  A    between atoms: _391  and  _393
REMARK  162  A    between atoms: _393  and  _394
REMARK  163  A    between atoms: _393  and  _396
REMARK  164  A    between atoms: _399  and  _401
REMARK  165  A    between atoms: _401  and  _402
REMARK  166  A    between atoms: _404  and  _406
REMARK  167  A    between atoms: _406  and  _407
REMARK  168  A    between atoms: _409  and  _411
REMARK  169  A    between atoms: _411  and  _412
REMARK  170  A    between atoms: _411  and  _414
REMARK  171  A    between atoms: _414  and  _415
REMARK  172  A    between atoms: _420  and  _422
REMARK  173  A    between atoms: _422  and  _423
REMARK  174  A    between atoms: _422  and  _425
REMARK  175  A    between atoms: _428  and  _430
REMARK  176  A    between atoms: _430  and  _431
REMARK  177  A    between atoms: _430  and  _433
REMARK  178  A    between atoms: _433  and  _434
REMARK  179  A    between atoms: _437  and  _439
REMARK  180  A    between atoms: _439  and  _440
REMARK  181  A    between atoms: _439  and  _442
REMARK  182  A    between atoms: _442  and  _443
REMARK  183  A    between atoms: _446  and  _448
REMARK  184  A    between atoms: _448  and  _449
REMARK  185  A    between atoms: _448  and  _451
REMARK  186  A    between atoms: _451  and  _452
REMARK  187  A    between atoms: _456  and  _457
REMARK  188  A    between atoms: _462  and  _464
REMARK  189  A    between atoms: _464  and  _465
REMARK  190  A    between atoms: _464  and  _467
REMARK  191  A    between atoms: _470  and  _472
REMARK  192  A    between atoms: _472  and  _473
REMARK  193  A    between atoms: _472  and  _475
REMARK  194  A    between atoms: _475  and  _476
REMARK  195  A    between atoms: _479  and  _481
REMARK  196  A    between atoms: _481  and  _482
REMARK  197  A    between atoms: _481  and  _484
REMARK  198  A    between atoms: _484  and  _485
REMARK  199  A    between atoms: _488  and  _490
REMARK  200  A    between atoms: _490  and  _491
REMARK  201  A    between atoms: _493  and  _495
REMARK  202  A    between atoms: _495  and  _496
REMARK  203  A    between atoms: _495  and  _498
REMARK  204  A    between atoms: _498  and  _499
REMARK  205  A    between atoms: _499  and  _500
REMARK  206  A    between atoms: _500  and  _501
REMARK                            x       y       z     vdW  Elec       q    Type
REMARK                         _______ _______ _______ _____ _____    ______ ____
ROOT
ATOM      1  O   HOH     1      -6.291  15.780  -2.202  0.00  0.00    +0.000 OA
ENDROOT
TORSDOF 0
REMARK  Name = ../refined-set-2016/2fmb/2fmb_pocket.pdb
REMARK  206 active torsions:
REMARK  status: ('A' for Active; 'I' for Inactive)
REMARK    1  A    between atoms: _1  and  _3
REMARK    2  A    between atoms: _3  and  _4
REMARK    3  A    between atoms: _3  and  _6
REMARK    4  A    between atoms: _6  and  _7
REMARK    5  A    between atoms: _7  and  _8
REMARK    6  A    between atoms: _8  and  _9
REMARK    7  A    between atoms: _18  and  _20
REMARK    8  A    between atoms: _20  and  _21
REMARK    9  A    between atoms: _20  and  _23
REMARK   10  A    between atoms: _23  and  _24
REMARK   11  A    between atoms: _27  and  _29
REMARK   12  A    between atoms: _29  and  _30
REMARK   13  A    between atoms: _29  and  _32
REMARK   14  A    between atoms: _32  and  _33
REMARK   15  A    between atoms: _36  and  _38
REMARK   16  A    between atoms: _38  and  _39
REMARK   17  A    between atoms: _38  and  _41
REMARK   18  A    between atoms: _41  and  _42
REMARK   19  A    between atoms: _45  and  _47
REMARK   20  A    between atoms: _47  and  _48
REMARK   21  A    between atoms: _47  and  _50
REMARK   22  A    between atoms: _50  and  _51
REMARK   23  A    between atoms: _54  and  _56
REMARK   24  A    between atoms: _56  and  _57
REMARK   25  A    between atoms: _59  and  _61
REMARK   26  A    between atoms: _61  and  _62
REMARK   27  A    between atoms: _65  and  _67
REMARK   28  A    between atoms: _67  and  _68
REMARK   29  A    between atoms: _67  and  _70
REMARK   30  A    between atoms: _70  and  _71
REMARK   31  A    between atoms: _74  and  _76
REMARK   32  A    between atoms: _76  and  _77
REMARK   33  A    between atoms: _76  and  _79
REMARK   34  A    between atoms: _79  and  _80
REMARK   35  A    between atoms: _83  and  _85
REMARK   36  A    between atoms: _85  and  _86
REMARK   37  A    between atoms: _85  and  _88
REMARK   38  A    between atoms: _88  and  _89
REMARK   39  A    between atoms: _91  and  _93
REMARK   40  A    between atoms: _93  and  _94
REMARK   41  A    between atoms: _93  and  _96
REMARK   42  A    between atoms: _99  and  _101
REMARK   43  A    between atoms: _101  and  _102
REMARK   44  A    between atoms: _101  and  _104
REMARK   45  A    between atoms: _104  and  _105
REMARK   46  A    between atoms: _108  and  _110
REMARK   47  A    between atoms: _110  and  _111
REMARK   48  A    between atoms: _113  and  _115
REMARK   49  A    between atoms: _115  and  _116
REMARK   50  A    between atoms: _115  and  _118
REMARK   51  A    between atoms: _118  and  _119
REMARK   52  A    between atoms: _122  and  _124
REMARK   53  A    between atoms: _124  and  _125
REMARK   54  A    between atoms: _127  and  _129
REMARK   55  A    between atoms: _129  and  _130
REMARK   56  A    between atoms: _132  and  _134
REMARK   57  A    between atoms: _134  and  _135
REMARK   58  A    between atoms: _134  and  _137
REMARK   59  A    between atoms: _140  and  _142
REMARK   60  A    between atoms: _142  and  _143
REMARK   61  A    between atoms: _145  and  _147
REMARK   62  A    between atoms: _147  and  _148
REMARK   63  A    between atoms: _150  and  _152
REMARK   64  A    between atoms: _152  and  _153
REMARK   65  A    between atoms: _152  and  _155
REMARK   66  A    between atoms: _155  and  _156
REMARK   67  A    between atoms: _161  and  _163
REMARK   68  A    between atoms: _163  and  _164
REMARK   69  A    between atoms: _163  and  _166
REMARK   70  A    between atoms: _169  and  _171
REMARK   71  A    between atoms: _171  and  _172
REMARK   72  A    between atoms: _171  and  _174
REMARK   73  A    between atoms: _174  and  _175
REMARK   74  A    between atoms: _178  and  _180
REMARK   75  A    between atoms: _180  and  _181
REMARK   76  A    between atoms: _180  and  _183
REMARK   77  A    between atoms: _183  and  _184
REMARK   78  A    between atoms: _188  and  _189
REMARK   79  A    between atoms: _194  and  _196
REMARK   80  A    between atoms: _196  and  _197
REMARK   81  A    between atoms: _196  and  _199
REMARK   82  A    between atoms: _202  and  _204
REMARK   83  A    between atoms: _204  and  _205
REMARK   84  A    between atoms: _204  and  _207
REMARK   85  A    between atoms: _207  and  _208
REMARK   86  A    between atoms: _211  and  _213
REMARK   87  A    between atoms: _213  and  _214
REMARK   88  A    between atoms: _213  and  _216
REMARK   89  A    between atoms: _216  and  _217
REMARK   90  A    between atoms: _220  and  _222
REMARK   91  A    between atoms: _222  and  _223
REMARK   92  A    between atoms: _222  and  _225
REMARK   93  A    between atoms: _225  and  _226
REMARK   94  A    between atoms: _229  and  _231
REMARK   95  A    between atoms: _231  and  _232
REMARK   96  A    between atoms: _234  and  _236
REMARK   97  A    between atoms: _236  and  _237
REMARK   98  A    between atoms: _236  and  _239
REMARK   99  A    between atoms: _239  and  _240
REMARK  100  A    between atoms: _240  and  _241
REMARK  101  A    between atoms: _241  and  _242
REMARK  102  A    between atoms: _251  and  _253
REMARK  103  A    between atoms: _253  and  _254
REMARK  104  A    between atoms: _253  and  _256
REMARK  105  A    between atoms: _256  and  _257
REMARK  106  A    between atoms: _257  and  _258
REMARK  107  A    between atoms: _258  and  _259
REMARK  108  A    between atoms: _268  and  _270
REMARK  109  A    between atoms: _270  and  _271
REMARK  110  A    between atoms: _270  and  _273
REMARK  111  A    between atoms: _273  and  _274
REMARK  112  A    between atoms: _277  and  _279
REMARK  113  A    between atoms: _279  and  _280
REMARK  114  A    between atoms: _279  and  _282
REMARK  115  A    between atoms: _282  and  _283
REMARK  116  A    between atoms: _286  and  _288
REMARK  117  A    between atoms: _288  and  _289
REMARK  118  A    between atoms: _288  and  _291
REMARK  119  A    between atoms: _291  and  _292
REMARK  120  A    between atoms: _295  and  _297
REMARK  121  A    between atoms: _297  and  _298
REMARK  122  A    between atoms: _297  and  _300
REMARK  123  A    between atoms: _300  and  _301
REMARK  124  A    between atoms: _304  and  _306
REMARK  125  A    between atoms: _306  and  _307
REMARK  126  A    between atoms: _306  and  _309
REMARK  127  A    between atoms: _309  and  _310
REMARK  128  A    between atoms: _313  and  _315
REMARK  129  A    between atoms: _315  and  _316
REMARK  130  A    between atoms: _318  and  _320
REMARK  131  A    between atoms: _320  and  _321
REMARK  132  A    between atoms: _324  and  _326
REMARK  133  A    between atoms: _326  and  _327
REMARK  134  A    between atoms: _326  and  _329
REMARK  135  A    between atoms: _329  and  _330
REMARK  136  A    between atoms: _333  and  _335
REMARK  137  A    between atoms: _335  and  _336
REMARK  138  A    between atoms: _335  and  _338
REMARK  139  A    between atoms: _338  and  _339
REMARK  140  A    between atoms: _342  and  _344
REMARK  141  A    between atoms: _344  and  _345
REMARK  142  A    between atoms: _344  and  _347
REMARK  143  A    between atoms: _347  and  _348
REMARK  144  A    between atoms: _350  and  _352
REMARK  145  A    between atoms: _352  and  _353
REMARK  146  A    between atoms: _352  and  _355
REMARK  147  A    between atoms: _358  and  _360
REMARK  148  A    between atoms: _360  and  _361
REMARK  149  A    between atoms: _360  and  _363
REMARK  150  A    between atoms: _363  and  _364
REMARK  151  A    between atoms: _367  and  _369
REMARK  152  A    between atoms: _369  and  _370
REMARK  153  A    between atoms: _372  and  _374
REMARK  154  A    between atoms: _374  and  _375
REMARK  155  A    between atoms: _374  and  _377
REMARK  156  A    between atoms: _377  and  _378
REMARK  157  A    between atoms: _381  and  _383
REMARK  158  A    between atoms: _383  and  _384
REMARK  159  A    between atoms: _386  and  _388
REMARK  160  A    between atoms: _388  and  _389
REMARK  161  A    between atoms: _391  and  _393
REMARK  162  A    between atoms: _393  and  _394
REMARK  163  A    between atoms: _393  and  _396
REMARK  164  A    between atoms: _399  and  _401
REMARK  165  A    between atoms: _401  and  _402
REMARK  166  A    between atoms: _404  and  _406
REMARK  167  A    between atoms: _406  and  _407
REMARK  168  A    between atoms: _409  and  _411
REMARK  169  A    between atoms: _411  and  _412
REMARK  170  A    between atoms: _411  and  _414
REMARK  171  A    between atoms: _414  and  _415
REMARK  172  A    between atoms: _420  and  _422
REMARK  173  A    between atoms: _422  and  _423
REMARK  174  A    between atoms: _422  and  _425
REMARK  175  A    between atoms: _428  and  _430
REMARK  176  A    between atoms: _430  and  _431
REMARK  177  A    between atoms: _430  and  _433
REMARK  178  A    between atoms: _433  and  _434
REMARK  179  A    between atoms: _437  and  _439
REMARK  180  A    between atoms: _439  and  _440
REMARK  181  A    between atoms: _439  and  _442
REMARK  182  A    between atoms: _442  and  _443
REMARK  183  A    between atoms: _446  and  _448
REMARK  184  A    between atoms: _448  and  _449
REMARK  185  A    between atoms: _448  and  _451
REMARK  186  A    between atoms: _451  and  _452
REMARK  187  A    between atoms: _456  and  _457
REMARK  188  A    between atoms: _462  and  _464
REMARK  189  A    between atoms: _464  and  _465
REMARK  190  A    between atoms: _464  and  _467
REMARK  191  A    between atoms: _470  and  _472
REMARK  192  A    between atoms: _472  and  _473
REMARK  193  A    between atoms: _472  and  _475
REMARK  194  A    between atoms: _475  and  _476
REMARK  195  A    between atoms: _479  and  _481
REMARK  196  A    between atoms: _481  and  _482
REMARK  197  A    between atoms: _481  and  _484
REMARK  198  A    between atoms: _484  and  _485
REMARK  199  A    between atoms: _488  and  _490
REMARK  200  A    between atoms: _490  and  _491
REMARK  201  A    between atoms: _493  and  _495
REMARK  202  A    between atoms: _495  and  _496
REMARK  203  A    between atoms: _495  and  _498
REMARK  204  A    between atoms: _498  and  _499
REMARK  205  A    between atoms: _499  and  _500
REMARK  206  A    between atoms: _500  and  _501
REMARK                            x       y       z     vdW  Elec       q    Type
REMARK                         _______ _______ _______ _____ _____    ______ ____
ROOT
ATOM      1  O   HOH     1      10.954  16.425  -6.952  0.00  0.00    +0.000 OA
ENDROOT
TORSDOF 0
REMARK  Name = ../refined-set-2016/2fmb/2fmb_pocket.pdb
REMARK  206 active torsions:
REMARK  status: ('A' for Active; 'I' for Inactive)
REMARK    1  A    between atoms: _1  and  _3
REMARK    2  A    between atoms: _3  and  _4
REMARK    3  A    between atoms: _3  and  _6
REMARK    4  A    between atoms: _6  and  _7
REMARK    5  A    between atoms: _7  and  _8
REMARK    6  A    between atoms: _8  and  _9
REMARK    7  A    between atoms: _18  and  _20
REMARK    8  A    between atoms: _20  and  _21
REMARK    9  A    between atoms: _20  and  _23
REMARK   10  A    between atoms: _23  and  _24
REMARK   11  A    between atoms: _27  and  _29
REMARK   12  A    between atoms: _29  and  _30
REMARK   13  A    between atoms: _29  and  _32
REMARK   14  A    between atoms: _32  and  _33
REMARK   15  A    between atoms: _36  and  _38
REMARK   16  A    between atoms: _38  and  _39
REMARK   17  A    between atoms: _38  and  _41
REMARK   18  A    between atoms: _41  and  _42
REMARK   19  A    between atoms: _45  and  _47
REMARK   20  A    between atoms: _47  and  _48
REMARK   21  A    between atoms: _47  and  _50
REMARK   22  A    between atoms: _50  and  _51
REMARK   23  A    between atoms: _54  and  _56
REMARK   24  A    between atoms: _56  and  _57
REMARK   25  A    between atoms: _59  and  _61
REMARK   26  A    between atoms: _61  and  _62
REMARK   27  A    between atoms: _65  and  _67
REMARK   28  A    between atoms: _67  and  _68
REMARK   29  A    between atoms: _67  and  _70
REMARK   30  A    between atoms: _70  and  _71
REMARK   31  A    between atoms: _74  and  _76
REMARK   32  A    between atoms: _76  and  _77
REMARK   33  A    between atoms: _76  and  _79
REMARK   34  A    between atoms: _79  and  _80
REMARK   35  A    between atoms: _83  and  _85
REMARK   36  A    between atoms: _85  and  _86
REMARK   37  A    between atoms: _85  and  _88
REMARK   38  A    between atoms: _88  and  _89
REMARK   39  A    between atoms: _91  and  _93
REMARK   40  A    between atoms: _93  and  _94
REMARK   41  A    between atoms: _93  and  _96
REMARK   42  A    between atoms: _99  and  _101
REMARK   43  A    between atoms: _101  and  _102
REMARK   44  A    between atoms: _101  and  _104
REMARK   45  A    between atoms: _104  and  _105
REMARK   46  A    between atoms: _108  and  _110
REMARK   47  A    between atoms: _110  and  _111
REMARK   48  A    between atoms: _113  and  _115
REMARK   49  A    between atoms: _115  and  _116
REMARK   50  A    between atoms: _115  and  _118
REMARK   51  A    between atoms: _118  and  _119
REMARK   52  A    between atoms: _122  and  _124
REMARK   53  A    between atoms: _124  and  _125
REMARK   54  A    between atoms: _127  and  _129
REMARK   55  A    between atoms: _129  and  _130
REMARK   56  A    between atoms: _132  and  _134
REMARK   57  A    between atoms: _134  and  _135
REMARK   58  A    between atoms: _134  and  _137
REMARK   59  A    between atoms: _140  and  _142
REMARK   60  A    between atoms: _142  and  _143
REMARK   61  A    between atoms: _145  and  _147
REMARK   62  A    between atoms: _147  and  _148
REMARK   63  A    between atoms: _150  and  _152
REMARK   64  A    between atoms: _152  and  _153
REMARK   65  A    between atoms: _152  and  _155
REMARK   66  A    between atoms: _155  and  _156
REMARK   67  A    between atoms: _161  and  _163
REMARK   68  A    between atoms: _163  and  _164
REMARK   69  A    between atoms: _163  and  _166
REMARK   70  A    between atoms: _169  and  _171
REMARK   71  A    between atoms: _171  and  _172
REMARK   72  A    between atoms: _171  and  _174
REMARK   73  A    between atoms: _174  and  _175
REMARK   74  A    between atoms: _178  and  _180
REMARK   75  A    between atoms: _180  and  _181
REMARK   76  A    between atoms: _180  and  _183
REMARK   77  A    between atoms: _183  and  _184
REMARK   78  A    between atoms: _188  and  _189
REMARK   79  A    between atoms: _194  and  _196
REMARK   80  A    between atoms: _196  and  _197
REMARK   81  A    between atoms: _196  and  _199
REMARK   82  A    between atoms: _202  and  _204
REMARK   83  A    between atoms: _204  and  _205
REMARK   84  A    between atoms: _204  and  _207
REMARK   85  A    between atoms: _207  and  _208
REMARK   86  A    between atoms: _211  and  _213
REMARK   87  A    between atoms: _213  and  _214
REMARK   88  A    between atoms: _213  and  _216
REMARK   89  A    between atoms: _216  and  _217
REMARK   90  A    between atoms: _220  and  _222
REMARK   91  A    between atoms: _222  and  _223
REMARK   92  A    between atoms: _222  and  _225
REMARK   93  A    between atoms: _225  and  _226
REMARK   94  A    between atoms: _229  and  _231
REMARK   95  A    between atoms: _231  and  _232
REMARK   96  A    between atoms: _234  and  _236
REMARK   97  A    between atoms: _236  and  _237
REMARK   98  A    between atoms: _236  and  _239
REMARK   99  A    between atoms: _239  and  _240
REMARK  100  A    between atoms: _240  and  _241
REMARK  101  A    between atoms: _241  and  _242
REMARK  102  A    between atoms: _251  and  _253
REMARK  103  A    between atoms: _253  and  _254
REMARK  104  A    between atoms: _253  and  _256
REMARK  105  A    between atoms: _256  and  _257
REMARK  106  A    between atoms: _257  and  _258
REMARK  107  A    between atoms: _258  and  _259
REMARK  108  A    between atoms: _268  and  _270
REMARK  109  A    between atoms: _270  and  _271
REMARK  110  A    between atoms: _270  and  _273
REMARK  111  A    between atoms: _273  and  _274
REMARK  112  A    between atoms: _277  and  _279
REMARK  113  A    between atoms: _279  and  _280
REMARK  114  A    between atoms: _279  and  _282
REMARK  115  A    between atoms: _282  and  _283
REMARK  116  A    between atoms: _286  and  _288
REMARK  117  A    between atoms: _288  and  _289
REMARK  118  A    between atoms: _288  and  _291
REMARK  119  A    between atoms: _291  and  _292
REMARK  120  A    between atoms: _295  and  _297
REMARK  121  A    between atoms: _297  and  _298
REMARK  122  A    between atoms: _297  and  _300
REMARK  123  A    between atoms: _300  and  _301
REMARK  124  A    between atoms: _304  and  _306
REMARK  125  A    between atoms: _306  and  _307
REMARK  126  A    between atoms: _306  and  _309
REMARK  127  A    between atoms: _309  and  _310
REMARK  128  A    between atoms: _313  and  _315
REMARK  129  A    between atoms: _315  and  _316
REMARK  130  A    between atoms: _318  and  _320
REMARK  131  A    between atoms: _320  and  _321
REMARK  132  A    between atoms: _324  and  _326
REMARK  133  A    between atoms: _326  and  _327
REMARK  134  A    between atoms: _326  and  _329
REMARK  135  A    between atoms: _329  and  _330
REMARK  136  A    between atoms: _333  and  _335
REMARK  137  A    between atoms: _335  and  _336
REMARK  138  A    between atoms: _335  and  _338
REMARK  139  A    between atoms: _338  and  _339
REMARK  140  A    between atoms: _342  and  _344
REMARK  141  A    between atoms: _344  and  _345
REMARK  142  A    between atoms: _344  and  _347
REMARK  143  A    between atoms: _347  and  _348
REMARK  144  A    between atoms: _350  and  _352
REMARK  145  A    between atoms: _352  and  _353
REMARK  146  A    between atoms: _352  and  _355
REMARK  147  A    between atoms: _358  and  _360
REMARK  148  A    between atoms: _360  and  _361
REMARK  149  A    between atoms: _360  and  _363
REMARK  150  A    between atoms: _363  and  _364
REMARK  151  A    between atoms: _367  and  _369
REMARK  152  A    between atoms: _369  and  _370
REMARK  153  A    between atoms: _372  and  _374
REMARK  154  A    between atoms: _374  and  _375
REMARK  155  A    between atoms: _374  and  _377
REMARK  156  A    between atoms: _377  and  _378
REMARK  157  A    between atoms: _381  and  _383
REMARK  158  A    between atoms: _383  and  _384
REMARK  159  A    between atoms: _386  and  _388
REMARK  160  A    between atoms: _388  and  _389
REMARK  161  A    between atoms: _391  and  _393
REMARK  162  A    between atoms: _393  and  _394
REMARK  163  A    between atoms: _393  and  _396
REMARK  164  A    between atoms: _399  and  _401
REMARK  165  A    between atoms: _401  and  _402
REMARK  166  A    between atoms: _404  and  _406
REMARK  167  A    between atoms: _406  and  _407
REMARK  168  A    between atoms: _409  and  _411
REMARK  169  A    between atoms: _411  and  _412
REMARK  170  A    between atoms: _411  and  _414
REMARK  171  A    between atoms: _414  and  _415
REMARK  172  A    between atoms: _420  and  _422
REMARK  173  A    between atoms: _422  and  _423
REMARK  174  A    between atoms: _422  and  _425
REMARK  175  A    between atoms: _428  and  _430
REMARK  176  A    between atoms: _430  and  _431
REMARK  177  A    between atoms: _430  and  _433
REMARK  178  A    between atoms: _433  and  _434
REMARK  179  A    between atoms: _437  and  _439
REMARK  180  A    between atoms: _439  and  _440
REMARK  181  A    between atoms: _439  and  _442
REMARK  182  A    between atoms: _442  and  _443
REMARK  183  A    between atoms: _446  and  _448
REMARK  184  A    between atoms: _448  and  _449
REMARK  185  A    between atoms: _448  and  _451
REMARK  186  A    between atoms: _451  and  _452
REMARK  187  A    between atoms: _456  and  _457
REMARK  188  A    between atoms: _462  and  _464
REMARK  189  A    between atoms: _464  and  _465
REMARK  190  A    between atoms: _464  and  _467
REMARK  191  A    between atoms: _470  and  _472
REMARK  192  A    between atoms: _472  and  _473
REMARK  193  A    between atoms: _472  and  _475
REMARK  194  A    between atoms: _475  and  _476
REMARK  195  A    between atoms: _479  and  _481
REMARK  196  A    between atoms: _481  and  _482
REMARK  197  A    between atoms: _481  and  _484
REMARK  198  A    between atoms: _484  and  _485
REMARK  199  A    between atoms: _488  and  _490
REMARK  200  A    between atoms: _490  and  _491
REMARK  201  A    between atoms: _493  and  _495
REMARK  202  A    between atoms: _495  and  _496
REMARK  203  A    between atoms: _495  and  _498
REMARK  204  A    between atoms: _498  and  _499
REMARK  205  A    between atoms: _499  and  _500
REMARK  206  A    between atoms: _500  and  _501
REMARK                            x       y       z     vdW  Elec       q    Type
REMARK                         _______ _______ _______ _____ _____    ______ ____
ROOT
ATOM      1  O   HOH     1      -8.026  24.254  -6.142  0.00  0.00    +0.000 OA
ENDROOT
TORSDOF 0
REMARK  Name = ../refined-set-2016/2fmb/2fmb_pocket.pdb
REMARK  206 active torsions:
REMARK  status: ('A' for Active; 'I' for Inactive)
REMARK    1  A    between atoms: _1  and  _3
REMARK    2  A    between atoms: _3  and  _4
REMARK    3  A    between atoms: _3  and  _6
REMARK    4  A    between atoms: _6  and  _7
REMARK    5  A    between atoms: _7  and  _8
REMARK    6  A    between atoms: _8  and  _9
REMARK    7  A    between atoms: _18  and  _20
REMARK    8  A    between atoms: _20  and  _21
REMARK    9  A    between atoms: _20  and  _23
REMARK   10  A    between atoms: _23  and  _24
REMARK   11  A    between atoms: _27  and  _29
REMARK   12  A    between atoms: _29  and  _30
REMARK   13  A    between atoms: _29  and  _32
REMARK   14  A    between atoms: _32  and  _33
REMARK   15  A    between atoms: _36  and  _38
REMARK   16  A    between atoms: _38  and  _39
REMARK   17  A    between atoms: _38  and  _41
REMARK   18  A    between atoms: _41  and  _42
REMARK   19  A    between atoms: _45  and  _47
REMARK   20  A    between atoms: _47  and  _48
REMARK   21  A    between atoms: _47  and  _50
REMARK   22  A    between atoms: _50  and  _51
REMARK   23  A    between atoms: _54  and  _56
REMARK   24  A    between atoms: _56  and  _57
REMARK   25  A    between atoms: _59  and  _61
REMARK   26  A    between atoms: _61  and  _62
REMARK   27  A    between atoms: _65  and  _67
REMARK   28  A    between atoms: _67  and  _68
REMARK   29  A    between atoms: _67  and  _70
REMARK   30  A    between atoms: _70  and  _71
REMARK   31  A    between atoms: _74  and  _76
REMARK   32  A    between atoms: _76  and  _77
REMARK   33  A    between atoms: _76  and  _79
REMARK   34  A    between atoms: _79  and  _80
REMARK   35  A    between atoms: _83  and  _85
REMARK   36  A    between atoms: _85  and  _86
REMARK   37  A    between atoms: _85  and  _88
REMARK   38  A    between atoms: _88  and  _89
REMARK   39  A    between atoms: _91  and  _93
REMARK   40  A    between atoms: _93  and  _94
REMARK   41  A    between atoms: _93  and  _96
REMARK   42  A    between atoms: _99  and  _101
REMARK   43  A    between atoms: _101  and  _102
REMARK   44  A    between atoms: _101  and  _104
REMARK   45  A    between atoms: _104  and  _105
REMARK   46  A    between atoms: _108  and  _110
REMARK   47  A    between atoms: _110  and  _111
REMARK   48  A    between atoms: _113  and  _115
REMARK   49  A    between atoms: _115  and  _116
REMARK   50  A    between atoms: _115  and  _118
REMARK   51  A    between atoms: _118  and  _119
REMARK   52  A    between atoms: _122  and  _124
REMARK   53  A    between atoms: _124  and  _125
REMARK   54  A    between atoms: _127  and  _129
REMARK   55  A    between atoms: _129  and  _130
REMARK   56  A    between atoms: _132  and  _134
REMARK   57  A    between atoms: _134  and  _135
REMARK   58  A    between atoms: _134  and  _137
REMARK   59  A    between atoms: _140  and  _142
REMARK   60  A    between atoms: _142  and  _143
REMARK   61  A    between atoms: _145  and  _147
REMARK   62  A    between atoms: _147  and  _148
REMARK   63  A    between atoms: _150  and  _152
REMARK   64  A    between atoms: _152  and  _153
REMARK   65  A    between atoms: _152  and  _155
REMARK   66  A    between atoms: _155  and  _156
REMARK   67  A    between atoms: _161  and  _163
REMARK   68  A    between atoms: _163  and  _164
REMARK   69  A    between atoms: _163  and  _166
REMARK   70  A    between atoms: _169  and  _171
REMARK   71  A    between atoms: _171  and  _172
REMARK   72  A    between atoms: _171  and  _174
REMARK   73  A    between atoms: _174  and  _175
REMARK   74  A    between atoms: _178  and  _180
REMARK   75  A    between atoms: _180  and  _181
REMARK   76  A    between atoms: _180  and  _183
REMARK   77  A    between atoms: _183  and  _184
REMARK   78  A    between atoms: _188  and  _189
REMARK   79  A    between atoms: _194  and  _196
REMARK   80  A    between atoms: _196  and  _197
REMARK   81  A    between atoms: _196  and  _199
REMARK   82  A    between atoms: _202  and  _204
REMARK   83  A    between atoms: _204  and  _205
REMARK   84  A    between atoms: _204  and  _207
REMARK   85  A    between atoms: _207  and  _208
REMARK   86  A    between atoms: _211  and  _213
REMARK   87  A    between atoms: _213  and  _214
REMARK   88  A    between atoms: _213  and  _216
REMARK   89  A    between atoms: _216  and  _217
REMARK   90  A    between atoms: _220  and  _222
REMARK   91  A    between atoms: _222  and  _223
REMARK   92  A    between atoms: _222  and  _225
REMARK   93  A    between atoms: _225  and  _226
REMARK   94  A    between atoms: _229  and  _231
REMARK   95  A    between atoms: _231  and  _232
REMARK   96  A    between atoms: _234  and  _236
REMARK   97  A    between atoms: _236  and  _237
REMARK   98  A    between atoms: _236  and  _239
REMARK   99  A    between atoms: _239  and  _240
REMARK  100  A    between atoms: _240  and  _241
REMARK  101  A    between atoms: _241  and  _242
REMARK  102  A    between atoms: _251  and  _253
REMARK  103  A    between atoms: _253  and  _254
REMARK  104  A    between atoms: _253  and  _256
REMARK  105  A    between atoms: _256  and  _257
REMARK  106  A    between atoms: _257  and  _258
REMARK  107  A    between atoms: _258  and  _259
REMARK  108  A    between atoms: _268  and  _270
REMARK  109  A    between atoms: _270  and  _271
REMARK  110  A    between atoms: _270  and  _273
REMARK  111  A    between atoms: _273  and  _274
REMARK  112  A    between atoms: _277  and  _279
REMARK  113  A    between atoms: _279  and  _280
REMARK  114  A    between atoms: _279  and  _282
REMARK  115  A    between atoms: _282  and  _283
REMARK  116  A    between atoms: _286  and  _288
REMARK  117  A    between atoms: _288  and  _289
REMARK  118  A    between atoms: _288  and  _291
REMARK  119  A    between atoms: _291  and  _292
REMARK  120  A    between atoms: _295  and  _297
REMARK  121  A    between atoms: _297  and  _298
REMARK  122  A    between atoms: _297  and  _300
REMARK  123  A    between atoms: _300  and  _301
REMARK  124  A    between atoms: _304  and  _306
REMARK  125  A    between atoms: _306  and  _307
REMARK  126  A    between atoms: _306  and  _309
REMARK  127  A    between atoms: _309  and  _310
REMARK  128  A    between atoms: _313  and  _315
REMARK  129  A    between atoms: _315  and  _316
REMARK  130  A    between atoms: _318  and  _320
REMARK  131  A    between atoms: _320  and  _321
REMARK  132  A    between atoms: _324  and  _326
REMARK  133  A    between atoms: _326  and  _327
REMARK  134  A    between atoms: _326  and  _329
REMARK  135  A    between atoms: _329  and  _330
REMARK  136  A    between atoms: _333  and  _335
REMARK  137  A    between atoms: _335  and  _336
REMARK  138  A    between atoms: _335  and  _338
REMARK  139  A    between atoms: _338  and  _339
REMARK  140  A    between atoms: _342  and  _344
REMARK  141  A    between atoms: _344  and  _345
REMARK  142  A    between atoms: _344  and  _347
REMARK  143  A    between atoms: _347  and  _348
REMARK  144  A    between atoms: _350  and  _352
REMARK  145  A    between atoms: _352  and  _353
REMARK  146  A    between atoms: _352  and  _355
REMARK  147  A    between atoms: _358  and  _360
REMARK  148  A    between atoms: _360  and  _361
REMARK  149  A    between atoms: _360  and  _363
REMARK  150  A    between atoms: _363  and  _364
REMARK  151  A    between atoms: _367  and  _369
REMARK  152  A    between atoms: _369  and  _370
REMARK  153  A    between atoms: _372  and  _374
REMARK  154  A    between atoms: _374  and  _375
REMARK  155  A    between atoms: _374  and  _377
REMARK  156  A    between atoms: _377  and  _378
REMARK  157  A    between atoms: _381  and  _383
REMARK  158  A    between atoms: _383  and  _384
REMARK  159  A    between atoms: _386  and  _388
REMARK  160  A    between atoms: _388  and  _389
REMARK  161  A    between atoms: _391  and  _393
REMARK  162  A    between atoms: _393  and  _394
REMARK  163  A    between atoms: _393  and  _396
REMARK  164  A    between atoms: _399  and  _401
REMARK  165  A    between atoms: _401  and  _402
REMARK  166  A    between atoms: _404  and  _406
REMARK  167  A    between atoms: _406  and  _407
REMARK  168  A    between atoms: _409  and  _411
REMARK  169  A    between atoms: _411  and  _412
REMARK  170  A    between atoms: _411  and  _414
REMARK  171  A    between atoms: _414  and  _415
REMARK  172  A    between atoms: _420  and  _422
REMARK  173  A    between atoms: _422  and  _423
REMARK  174  A    between atoms: _422  and  _425
REMARK  175  A    between atoms: _428  and  _430
REMARK  176  A    between atoms: _430  and  _431
REMARK  177  A    between atoms: _430  and  _433
REMARK  178  A    between atoms: _433  and  _434
REMARK  179  A    between atoms: _437  and  _439
REMARK  180  A    between atoms: _439  and  _440
REMARK  181  A    between atoms: _439  and  _442
REMARK  182  A    between atoms: _442  and  _443
REMARK  183  A    between atoms: _446  and  _448
REMARK  184  A    between atoms: _448  and  _449
REMARK  185  A    between atoms: _448  and  _451
REMARK  186  A    between atoms: _451  and  _452
REMARK  187  A    between atoms: _456  and  _457
REMARK  188  A    between atoms: _462  and  _464
REMARK  189  A    between atoms: _464  and  _465
REMARK  190  A    between atoms: _464  and  _467
REMARK  191  A    between atoms: _470  and  _472
REMARK  192  A    between atoms: _472  and  _473
REMARK  193  A    between atoms: _472  and  _475
REMARK  194  A    between atoms: _475  and  _476
REMARK  195  A    between atoms: _479  and  _481
REMARK  196  A    between atoms: _481  and  _482
REMARK  197  A    between atoms: _481  and  _484
REMARK  198  A    between atoms: _484  and  _485
REMARK  199  A    between atoms: _488  and  _490
REMARK  200  A    between atoms: _490  and  _491
REMARK  201  A    between atoms: _493  and  _495
REMARK  202  A    between atoms: _495  and  _496
REMARK  203  A    between atoms: _495  and  _498
REMARK  204  A    between atoms: _498  and  _499
REMARK  205  A    between atoms: _499  and  _500
REMARK  206  A    between atoms: _500  and  _501
REMARK                            x       y       z     vdW  Elec       q    Type
REMARK                         _______ _______ _______ _____ _____    ______ ____
ROOT
ATOM      1  O   HOH     1      -9.561  17.599  -8.123  0.00  0.00    +0.000 OA
ENDROOT
TORSDOF 0
REMARK  Name = ../refined-set-2016/2fmb/2fmb_pocket.pdb
REMARK  206 active torsions:
REMARK  status: ('A' for Active; 'I' for Inactive)
REMARK    1  A    between atoms: _1  and  _3
REMARK    2  A    between atoms: _3  and  _4
REMARK    3  A    between atoms: _3  and  _6
REMARK    4  A    between atoms: _6  and  _7
REMARK    5  A    between atoms: _7  and  _8
REMARK    6  A    between atoms: _8  and  _9
REMARK    7  A    between atoms: _18  and  _20
REMARK    8  A    between atoms: _20  and  _21
REMARK    9  A    between atoms: _20  and  _23
REMARK   10  A    between atoms: _23  and  _24
REMARK   11  A    between atoms: _27  and  _29
REMARK   12  A    between atoms: _29  and  _30
REMARK   13  A    between atoms: _29  and  _32
REMARK   14  A    between atoms: _32  and  _33
REMARK   15  A    between atoms: _36  and  _38
REMARK   16  A    between atoms: _38  and  _39
REMARK   17  A    between atoms: _38  and  _41
REMARK   18  A    between atoms: _41  and  _42
REMARK   19  A    between atoms: _45  and  _47
REMARK   20  A    between atoms: _47  and  _48
REMARK   21  A    between atoms: _47  and  _50
REMARK   22  A    between atoms: _50  and  _51
REMARK   23  A    between atoms: _54  and  _56
REMARK   24  A    between atoms: _56  and  _57
REMARK   25  A    between atoms: _59  and  _61
REMARK   26  A    between atoms: _61  and  _62
REMARK   27  A    between atoms: _65  and  _67
REMARK   28  A    between atoms: _67  and  _68
REMARK   29  A    between atoms: _67  and  _70
REMARK   30  A    between atoms: _70  and  _71
REMARK   31  A    between atoms: _74  and  _76
REMARK   32  A    between atoms: _76  and  _77
REMARK   33  A    between atoms: _76  and  _79
REMARK   34  A    between atoms: _79  and  _80
REMARK   35  A    between atoms: _83  and  _85
REMARK   36  A    between atoms: _85  and  _86
REMARK   37  A    between atoms: _85  and  _88
REMARK   38  A    between atoms: _88  and  _89
REMARK   39  A    between atoms: _91  and  _93
REMARK   40  A    between atoms: _93  and  _94
REMARK   41  A    between atoms: _93  and  _96
REMARK   42  A    between atoms: _99  and  _101
REMARK   43  A    between atoms: _101  and  _102
REMARK   44  A    between atoms: _101  and  _104
REMARK   45  A    between atoms: _104  and  _105
REMARK   46  A    between atoms: _108  and  _110
REMARK   47  A    between atoms: _110  and  _111
REMARK   48  A    between atoms: _113  and  _115
REMARK   49  A    between atoms: _115  and  _116
REMARK   50  A    between atoms: _115  and  _118
REMARK   51  A    between atoms: _118  and  _119
REMARK   52  A    between atoms: _122  and  _124
REMARK   53  A    between atoms: _124  and  _125
REMARK   54  A    between atoms: _127  and  _129
REMARK   55  A    between atoms: _129  and  _130
REMARK   56  A    between atoms: _132  and  _134
REMARK   57  A    between atoms: _134  and  _135
REMARK   58  A    between atoms: _134  and  _137
REMARK   59  A    between atoms: _140  and  _142
REMARK   60  A    between atoms: _142  and  _143
REMARK   61  A    between atoms: _145  and  _147
REMARK   62  A    between atoms: _147  and  _148
REMARK   63  A    between atoms: _150  and  _152
REMARK   64  A    between atoms: _152  and  _153
REMARK   65  A    between atoms: _152  and  _155
REMARK   66  A    between atoms: _155  and  _156
REMARK   67  A    between atoms: _161  and  _163
REMARK   68  A    between atoms: _163  and  _164
REMARK   69  A    between atoms: _163  and  _166
REMARK   70  A    between atoms: _169  and  _171
REMARK   71  A    between atoms: _171  and  _172
REMARK   72  A    between atoms: _171  and  _174
REMARK   73  A    between atoms: _174  and  _175
REMARK   74  A    between atoms: _178  and  _180
REMARK   75  A    between atoms: _180  and  _181
REMARK   76  A    between atoms: _180  and  _183
REMARK   77  A    between atoms: _183  and  _184
REMARK   78  A    between atoms: _188  and  _189
REMARK   79  A    between atoms: _194  and  _196
REMARK   80  A    between atoms: _196  and  _197
REMARK   81  A    between atoms: _196  and  _199
REMARK   82  A    between atoms: _202  and  _204
REMARK   83  A    between atoms: _204  and  _205
REMARK   84  A    between atoms: _204  and  _207
REMARK   85  A    between atoms: _207  and  _208
REMARK   86  A    between atoms: _211  and  _213
REMARK   87  A    between atoms: _213  and  _214
REMARK   88  A    between atoms: _213  and  _216
REMARK   89  A    between atoms: _216  and  _217
REMARK   90  A    between atoms: _220  and  _222
REMARK   91  A    between atoms: _222  and  _223
REMARK   92  A    between atoms: _222  and  _225
REMARK   93  A    between atoms: _225  and  _226
REMARK   94  A    between atoms: _229  and  _231
REMARK   95  A    between atoms: _231  and  _232
REMARK   96  A    between atoms: _234  and  _236
REMARK   97  A    between atoms: _236  and  _237
REMARK   98  A    between atoms: _236  and  _239
REMARK   99  A    between atoms: _239  and  _240
REMARK  100  A    between atoms: _240  and  _241
REMARK  101  A    between atoms: _241  and  _242
REMARK  102  A    between atoms: _251  and  _253
REMARK  103  A    between atoms: _253  and  _254
REMARK  104  A    between atoms: _253  and  _256
REMARK  105  A    between atoms: _256  and  _257
REMARK  106  A    between atoms: _257  and  _258
REMARK  107  A    between atoms: _258  and  _259
REMARK  108  A    between atoms: _268  and  _270
REMARK  109  A    between atoms: _270  and  _271
REMARK  110  A    between atoms: _270  and  _273
REMARK  111  A    between atoms: _273  and  _274
REMARK  112  A    between atoms: _277  and  _279
REMARK  113  A    between atoms: _279  and  _280
REMARK  114  A    between atoms: _279  and  _282
REMARK  115  A    between atoms: _282  and  _283
REMARK  116  A    between atoms: _286  and  _288
REMARK  117  A    between atoms: _288  and  _289
REMARK  118  A    between atoms: _288  and  _291
REMARK  119  A    between atoms: _291  and  _292
REMARK  120  A    between atoms: _295  and  _297
REMARK  121  A    between atoms: _297  and  _298
REMARK  122  A    between atoms: _297  and  _300
REMARK  123  A    between atoms: _300  and  _301
REMARK  124  A    between atoms: _304  and  _306
REMARK  125  A    between atoms: _306  and  _307
REMARK  126  A    between atoms: _306  and  _309
REMARK  127  A    between atoms: _309  and  _310
REMARK  128  A    between atoms: _313  and  _315
REMARK  129  A    between atoms: _315  and  _316
REMARK  130  A    between atoms: _318  and  _320
REMARK  131  A    between atoms: _320  and  _321
REMARK  132  A    between atoms: _324  and  _326
REMARK  133  A    between atoms: _326  and  _327
REMARK  134  A    between atoms: _326  and  _329
REMARK  135  A    between atoms: _329  and  _330
REMARK  136  A    between atoms: _333  and  _335
REMARK  137  A    between atoms: _335  and  _336
REMARK  138  A    between atoms: _335  and  _338
REMARK  139  A    between atoms: _338  and  _339
REMARK  140  A    between atoms: _342  and  _344
REMARK  141  A    between atoms: _344  and  _345
REMARK  142  A    between atoms: _344  and  _347
REMARK  143  A    between atoms: _347  and  _348
REMARK  144  A    between atoms: _350  and  _352
REMARK  145  A    between atoms: _352  and  _353
REMARK  146  A    between atoms: _352  and  _355
REMARK  147  A    between atoms: _358  and  _360
REMARK  148  A    between atoms: _360  and  _361
REMARK  149  A    between atoms: _360  and  _363
REMARK  150  A    between atoms: _363  and  _364
REMARK  151  A    between atoms: _367  and  _369
REMARK  152  A    between atoms: _369  and  _370
REMARK  153  A    between atoms: _372  and  _374
REMARK  154  A    between atoms: _374  and  _375
REMARK  155  A    between atoms: _374  and  _377
REMARK  156  A    between atoms: _377  and  _378
REMARK  157  A    between atoms: _381  and  _383
REMARK  158  A    between atoms: _383  and  _384
REMARK  159  A    between atoms: _386  and  _388
REMARK  160  A    between atoms: _388  and  _389
REMARK  161  A    between atoms: _391  and  _393
REMARK  162  A    between atoms: _393  and  _394
REMARK  163  A    between atoms: _393  and  _396
REMARK  164  A    between atoms: _399  and  _401
REMARK  165  A    between atoms: _401  and  _402
REMARK  166  A    between atoms: _404  and  _406
REMARK  167  A    between atoms: _406  and  _407
REMARK  168  A    between atoms: _409  and  _411
REMARK  169  A    between atoms: _411  and  _412
REMARK  170  A    between atoms: _411  and  _414
REMARK  171  A    between atoms: _414  and  _415
REMARK  172  A    between atoms: _420  and  _422
REMARK  173  A    between atoms: _422  and  _423
REMARK  174  A    between atoms: _422  and  _425
REMARK  175  A    between atoms: _428  and  _430
REMARK  176  A    between atoms: _430  and  _431
REMARK  177  A    between atoms: _430  and  _433
REMARK  178  A    between atoms: _433  and  _434
REMARK  179  A    between atoms: _437  and  _439
REMARK  180  A    between atoms: _439  and  _440
REMARK  181  A    between atoms: _439  and  _442
REMARK  182  A    between atoms: _442  and  _443
REMARK  183  A    between atoms: _446  and  _448
REMARK  184  A    between atoms: _448  and  _449
REMARK  185  A    between atoms: _448  and  _451
REMARK  186  A    between atoms: _451  and  _452
REMARK  187  A    between atoms: _456  and  _457
REMARK  188  A    between atoms: _462  and  _464
REMARK  189  A    between atoms: _464  and  _465
REMARK  190  A    between atoms: _464  and  _467
REMARK  191  A    between atoms: _470  and  _472
REMARK  192  A    between atoms: _472  and  _473
REMARK  193  A    between atoms: _472  and  _475
REMARK  194  A    between atoms: _475  and  _476
REMARK  195  A    between atoms: _479  and  _481
REMARK  196  A    between atoms: _481  and  _482
REMARK  197  A    between atoms: _481  and  _484
REMARK  198  A    between atoms: _484  and  _485
REMARK  199  A    between atoms: _488  and  _490
REMARK  200  A    between atoms: _490  and  _491
REMARK  201  A    between atoms: _493  and  _495
REMARK  202  A    between atoms: _495  and  _496
REMARK  203  A    between atoms: _495  and  _498
REMARK  204  A    between atoms: _498  and  _499
REMARK  205  A    between atoms: _499  and  _500
REMARK  206  A    between atoms: _500  and  _501
REMARK                            x       y       z     vdW  Elec       q    Type
REMARK                         _______ _______ _______ _____ _____    ______ ____
ROOT
ATOM      1  O   HOH     1      -7.492  12.808  -9.707  0.00  0.00    +0.000 OA
ENDROOT
TORSDOF 0
REMARK  Name = ../refined-set-2016/2fmb/2fmb_pocket.pdb
REMARK  206 active torsions:
REMARK  status: ('A' for Active; 'I' for Inactive)
REMARK    1  A    between atoms: _1  and  _3
REMARK    2  A    between atoms: _3  and  _4
REMARK    3  A    between atoms: _3  and  _6
REMARK    4  A    between atoms: _6  and  _7
REMARK    5  A    between atoms: _7  and  _8
REMARK    6  A    between atoms: _8  and  _9
REMARK    7  A    between atoms: _18  and  _20
REMARK    8  A    between atoms: _20  and  _21
REMARK    9  A    between atoms: _20  and  _23
REMARK   10  A    between atoms: _23  and  _24
REMARK   11  A    between atoms: _27  and  _29
REMARK   12  A    between atoms: _29  and  _30
REMARK   13  A    between atoms: _29  and  _32
REMARK   14  A    between atoms: _32  and  _33
REMARK   15  A    between atoms: _36  and  _38
REMARK   16  A    between atoms: _38  and  _39
REMARK   17  A    between atoms: _38  and  _41
REMARK   18  A    between atoms: _41  and  _42
REMARK   19  A    between atoms: _45  and  _47
REMARK   20  A    between atoms: _47  and  _48
REMARK   21  A    between atoms: _47  and  _50
REMARK   22  A    between atoms: _50  and  _51
REMARK   23  A    between atoms: _54  and  _56
REMARK   24  A    between atoms: _56  and  _57
REMARK   25  A    between atoms: _59  and  _61
REMARK   26  A    between atoms: _61  and  _62
REMARK   27  A    between atoms: _65  and  _67
REMARK   28  A    between atoms: _67  and  _68
REMARK   29  A    between atoms: _67  and  _70
REMARK   30  A    between atoms: _70  and  _71
REMARK   31  A    between atoms: _74  and  _76
REMARK   32  A    between atoms: _76  and  _77
REMARK   33  A    between atoms: _76  and  _79
REMARK   34  A    between atoms: _79  and  _80
REMARK   35  A    between atoms: _83  and  _85
REMARK   36  A    between atoms: _85  and  _86
REMARK   37  A    between atoms: _85  and  _88
REMARK   38  A    between atoms: _88  and  _89
REMARK   39  A    between atoms: _91  and  _93
REMARK   40  A    between atoms: _93  and  _94
REMARK   41  A    between atoms: _93  and  _96
REMARK   42  A    between atoms: _99  and  _101
REMARK   43  A    between atoms: _101  and  _102
REMARK   44  A    between atoms: _101  and  _104
REMARK   45  A    between atoms: _104  and  _105
REMARK   46  A    between atoms: _108  and  _110
REMARK   47  A    between atoms: _110  and  _111
REMARK   48  A    between atoms: _113  and  _115
REMARK   49  A    between atoms: _115  and  _116
REMARK   50  A    between atoms: _115  and  _118
REMARK   51  A    between atoms: _118  and  _119
REMARK   52  A    between atoms: _122  and  _124
REMARK   53  A    between atoms: _124  and  _125
REMARK   54  A    between atoms: _127  and  _129
REMARK   55  A    between atoms: _129  and  _130
REMARK   56  A    between atoms: _132  and  _134
REMARK   57  A    between atoms: _134  and  _135
REMARK   58  A    between atoms: _134  and  _137
REMARK   59  A    between atoms: _140  and  _142
REMARK   60  A    between atoms: _142  and  _143
REMARK   61  A    between atoms: _145  and  _147
REMARK   62  A    between atoms: _147  and  _148
REMARK   63  A    between atoms: _150  and  _152
REMARK   64  A    between atoms: _152  and  _153
REMARK   65  A    between atoms: _152  and  _155
REMARK   66  A    between atoms: _155  and  _156
REMARK   67  A    between atoms: _161  and  _163
REMARK   68  A    between atoms: _163  and  _164
REMARK   69  A    between atoms: _163  and  _166
REMARK   70  A    between atoms: _169  and  _171
REMARK   71  A    between atoms: _171  and  _172
REMARK   72  A    between atoms: _171  and  _174
REMARK   73  A    between atoms: _174  and  _175
REMARK   74  A    between atoms: _178  and  _180
REMARK   75  A    between atoms: _180  and  _181
REMARK   76  A    between atoms: _180  and  _183
REMARK   77  A    between atoms: _183  and  _184
REMARK   78  A    between atoms: _188  and  _189
REMARK   79  A    between atoms: _194  and  _196
REMARK   80  A    between atoms: _196  and  _197
REMARK   81  A    between atoms: _196  and  _199
REMARK   82  A    between atoms: _202  and  _204
REMARK   83  A    between atoms: _204  and  _205
REMARK   84  A    between atoms: _204  and  _207
REMARK   85  A    between atoms: _207  and  _208
REMARK   86  A    between atoms: _211  and  _213
REMARK   87  A    between atoms: _213  and  _214
REMARK   88  A    between atoms: _213  and  _216
REMARK   89  A    between atoms: _216  and  _217
REMARK   90  A    between atoms: _220  and  _222
REMARK   91  A    between atoms: _222  and  _223
REMARK   92  A    between atoms: _222  and  _225
REMARK   93  A    between atoms: _225  and  _226
REMARK   94  A    between atoms: _229  and  _231
REMARK   95  A    between atoms: _231  and  _232
REMARK   96  A    between atoms: _234  and  _236
REMARK   97  A    between atoms: _236  and  _237
REMARK   98  A    between atoms: _236  and  _239
REMARK   99  A    between atoms: _239  and  _240
REMARK  100  A    between atoms: _240  and  _241
REMARK  101  A    between atoms: _241  and  _242
REMARK  102  A    between atoms: _251  and  _253
REMARK  103  A    between atoms: _253  and  _254
REMARK  104  A    between atoms: _253  and  _256
REMARK  105  A    between atoms: _256  and  _257
REMARK  106  A    between atoms: _257  and  _258
REMARK  107  A    between atoms: _258  and  _259
REMARK  108  A    between atoms: _268  and  _270
REMARK  109  A    between atoms: _270  and  _271
REMARK  110  A    between atoms: _270  and  _273
REMARK  111  A    between atoms: _273  and  _274
REMARK  112  A    between atoms: _277  and  _279
REMARK  113  A    between atoms: _279  and  _280
REMARK  114  A    between atoms: _279  and  _282
REMARK  115  A    between atoms: _282  and  _283
REMARK  116  A    between atoms: _286  and  _288
REMARK  117  A    between atoms: _288  and  _289
REMARK  118  A    between atoms: _288  and  _291
REMARK  119  A    between atoms: _291  and  _292
REMARK  120  A    between atoms: _295  and  _297
REMARK  121  A    between atoms: _297  and  _298
REMARK  122  A    between atoms: _297  and  _300
REMARK  123  A    between atoms: _300  and  _301
REMARK  124  A    between atoms: _304  and  _306
REMARK  125  A    between atoms: _306  and  _307
REMARK  126  A    between atoms: _306  and  _309
REMARK  127  A    between atoms: _309  and  _310
REMARK  128  A    between atoms: _313  and  _315
REMARK  129  A    between atoms: _315  and  _316
REMARK  130  A    between atoms: _318  and  _320
REMARK  131  A    between atoms: _320  and  _321
REMARK  132  A    between atoms: _324  and  _326
REMARK  133  A    between atoms: _326  and  _327
REMARK  134  A    between atoms: _326  and  _329
REMARK  135  A    between atoms: _329  and  _330
REMARK  136  A    between atoms: _333  and  _335
REMARK  137  A    between atoms: _335  and  _336
REMARK  138  A    between atoms: _335  and  _338
REMARK  139  A    between atoms: _338  and  _339
REMARK  140  A    between atoms: _342  and  _344
REMARK  141  A    between atoms: _344  and  _345
REMARK  142  A    between atoms: _344  and  _347
REMARK  143  A    between atoms: _347  and  _348
REMARK  144  A    between atoms: _350  and  _352
REMARK  145  A    between atoms: _352  and  _353
REMARK  146  A    between atoms: _352  and  _355
REMARK  147  A    between atoms: _358  and  _360
REMARK  148  A    between atoms: _360  and  _361
REMARK  149  A    between atoms: _360  and  _363
REMARK  150  A    between atoms: _363  and  _364
REMARK  151  A    between atoms: _367  and  _369
REMARK  152  A    between atoms: _369  and  _370
REMARK  153  A    between atoms: _372  and  _374
REMARK  154  A    between atoms: _374  and  _375
REMARK  155  A    between atoms: _374  and  _377
REMARK  156  A    between atoms: _377  and  _378
REMARK  157  A    between atoms: _381  and  _383
REMARK  158  A    between atoms: _383  and  _384
REMARK  159  A    between atoms: _386  and  _388
REMARK  160  A    between atoms: _388  and  _389
REMARK  161  A    between atoms: _391  and  _393
REMARK  162  A    between atoms: _393  and  _394
REMARK  163  A    between atoms: _393  and  _396
REMARK  164  A    between atoms: _399  and  _401
REMARK  165  A    between atoms: _401  and  _402
REMARK  166  A    between atoms: _404  and  _406
REMARK  167  A    between atoms: _406  and  _407
REMARK  168  A    between atoms: _409  and  _411
REMARK  169  A    between atoms: _411  and  _412
REMARK  170  A    between atoms: _411  and  _414
REMARK  171  A    between atoms: _414  and  _415
REMARK  172  A    between atoms: _420  and  _422
REMARK  173  A    between atoms: _422  and  _423
REMARK  174  A    between atoms: _422  and  _425
REMARK  175  A    between atoms: _428  and  _430
REMARK  176  A    between atoms: _430  and  _431
REMARK  177  A    between atoms: _430  and  _433
REMARK  178  A    between atoms: _433  and  _434
REMARK  179  A    between atoms: _437  and  _439
REMARK  180  A    between atoms: _439  and  _440
REMARK  181  A    between atoms: _439  and  _442
REMARK  182  A    between atoms: _442  and  _443
REMARK  183  A    between atoms: _446  and  _448
REMARK  184  A    between atoms: _448  and  _449
REMARK  185  A    between atoms: _448  and  _451
REMARK  186  A    between atoms: _451  and  _452
REMARK  187  A    between atoms: _456  and  _457
REMARK  188  A    between atoms: _462  and  _464
REMARK  189  A    between atoms: _464  and  _465
REMARK  190  A    between atoms: _464  and  _467
REMARK  191  A    between atoms: _470  and  _472
REMARK  192  A    between atoms: _472  and  _473
REMARK  193  A    between atoms: _472  and  _475
REMARK  194  A    between atoms: _475  and  _476
REMARK  195  A    between atoms: _479  and  _481
REMARK  196  A    between atoms: _481  and  _482
REMARK  197  A    between atoms: _481  and  _484
REMARK  198  A    between atoms: _484  and  _485
REMARK  199  A    between atoms: _488  and  _490
REMARK  200  A    between atoms: _490  and  _491
REMARK  201  A    between atoms: _493  and  _495
REMARK  202  A    between atoms: _495  and  _496
REMARK  203  A    between atoms: _495  and  _498
REMARK  204  A    between atoms: _498  and  _499
REMARK  205  A    between atoms: _499  and  _500
REMARK  206  A    between atoms: _500  and  _501
REMARK                            x       y       z     vdW  Elec       q    Type
REMARK                         _______ _______ _______ _____ _____    ______ ____
ROOT
ATOM      1  O   HOH     1      13.273  21.480  -3.808  0.00  0.00    +0.000 OA
ENDROOT
TORSDOF 0
REMARK  Name = ../refined-set-2016/2fmb/2fmb_pocket.pdb
REMARK  206 active torsions:
REMARK  status: ('A' for Active; 'I' for Inactive)
REMARK    1  A    between atoms: _1  and  _3
REMARK    2  A    between atoms: _3  and  _4
REMARK    3  A    between atoms: _3  and  _6
REMARK    4  A    between atoms: _6  and  _7
REMARK    5  A    between atoms: _7  and  _8
REMARK    6  A    between atoms: _8  and  _9
REMARK    7  A    between atoms: _18  and  _20
REMARK    8  A    between atoms: _20  and  _21
REMARK    9  A    between atoms: _20  and  _23
REMARK   10  A    between atoms: _23  and  _24
REMARK   11  A    between atoms: _27  and  _29
REMARK   12  A    between atoms: _29  and  _30
REMARK   13  A    between atoms: _29  and  _32
REMARK   14  A    between atoms: _32  and  _33
REMARK   15  A    between atoms: _36  and  _38
REMARK   16  A    between atoms: _38  and  _39
REMARK   17  A    between atoms: _38  and  _41
REMARK   18  A    between atoms: _41  and  _42
REMARK   19  A    between atoms: _45  and  _47
REMARK   20  A    between atoms: _47  and  _48
REMARK   21  A    between atoms: _47  and  _50
REMARK   22  A    between atoms: _50  and  _51
REMARK   23  A    between atoms: _54  and  _56
REMARK   24  A    between atoms: _56  and  _57
REMARK   25  A    between atoms: _59  and  _61
REMARK   26  A    between atoms: _61  and  _62
REMARK   27  A    between atoms: _65  and  _67
REMARK   28  A    between atoms: _67  and  _68
REMARK   29  A    between atoms: _67  and  _70
REMARK   30  A    between atoms: _70  and  _71
REMARK   31  A    between atoms: _74  and  _76
REMARK   32  A    between atoms: _76  and  _77
REMARK   33  A    between atoms: _76  and  _79
REMARK   34  A    between atoms: _79  and  _80
REMARK   35  A    between atoms: _83  and  _85
REMARK   36  A    between atoms: _85  and  _86
REMARK   37  A    between atoms: _85  and  _88
REMARK   38  A    between atoms: _88  and  _89
REMARK   39  A    between atoms: _91  and  _93
REMARK   40  A    between atoms: _93  and  _94
REMARK   41  A    between atoms: _93  and  _96
REMARK   42  A    between atoms: _99  and  _101
REMARK   43  A    between atoms: _101  and  _102
REMARK   44  A    between atoms: _101  and  _104
REMARK   45  A    between atoms: _104  and  _105
REMARK   46  A    between atoms: _108  and  _110
REMARK   47  A    between atoms: _110  and  _111
REMARK   48  A    between atoms: _113  and  _115
REMARK   49  A    between atoms: _115  and  _116
REMARK   50  A    between atoms: _115  and  _118
REMARK   51  A    between atoms: _118  and  _119
REMARK   52  A    between atoms: _122  and  _124
REMARK   53  A    between atoms: _124  and  _125
REMARK   54  A    between atoms: _127  and  _129
REMARK   55  A    between atoms: _129  and  _130
REMARK   56  A    between atoms: _132  and  _134
REMARK   57  A    between atoms: _134  and  _135
REMARK   58  A    between atoms: _134  and  _137
REMARK   59  A    between atoms: _140  and  _142
REMARK   60  A    between atoms: _142  and  _143
REMARK   61  A    between atoms: _145  and  _147
REMARK   62  A    between atoms: _147  and  _148
REMARK   63  A    between atoms: _150  and  _152
REMARK   64  A    between atoms: _152  and  _153
REMARK   65  A    between atoms: _152  and  _155
REMARK   66  A    between atoms: _155  and  _156
REMARK   67  A    between atoms: _161  and  _163
REMARK   68  A    between atoms: _163  and  _164
REMARK   69  A    between atoms: _163  and  _166
REMARK   70  A    between atoms: _169  and  _171
REMARK   71  A    between atoms: _171  and  _172
REMARK   72  A    between atoms: _171  and  _174
REMARK   73  A    between atoms: _174  and  _175
REMARK   74  A    between atoms: _178  and  _180
REMARK   75  A    between atoms: _180  and  _181
REMARK   76  A    between atoms: _180  and  _183
REMARK   77  A    between atoms: _183  and  _184
REMARK   78  A    between atoms: _188  and  _189
REMARK   79  A    between atoms: _194  and  _196
REMARK   80  A    between atoms: _196  and  _197
REMARK   81  A    between atoms: _196  and  _199
REMARK   82  A    between atoms: _202  and  _204
REMARK   83  A    between atoms: _204  and  _205
REMARK   84  A    between atoms: _204  and  _207
REMARK   85  A    between atoms: _207  and  _208
REMARK   86  A    between atoms: _211  and  _213
REMARK   87  A    between atoms: _213  and  _214
REMARK   88  A    between atoms: _213  and  _216
REMARK   89  A    between atoms: _216  and  _217
REMARK   90  A    between atoms: _220  and  _222
REMARK   91  A    between atoms: _222  and  _223
REMARK   92  A    between atoms: _222  and  _225
REMARK   93  A    between atoms: _225  and  _226
REMARK   94  A    between atoms: _229  and  _231
REMARK   95  A    between atoms: _231  and  _232
REMARK   96  A    between atoms: _234  and  _236
REMARK   97  A    between atoms: _236  and  _237
REMARK   98  A    between atoms: _236  and  _239
REMARK   99  A    between atoms: _239  and  _240
REMARK  100  A    between atoms: _240  and  _241
REMARK  101  A    between atoms: _241  and  _242
REMARK  102  A    between atoms: _251  and  _253
REMARK  103  A    between atoms: _253  and  _254
REMARK  104  A    between atoms: _253  and  _256
REMARK  105  A    between atoms: _256  and  _257
REMARK  106  A    between atoms: _257  and  _258
REMARK  107  A    between atoms: _258  and  _259
REMARK  108  A    between atoms: _268  and  _270
REMARK  109  A    between atoms: _270  and  _271
REMARK  110  A    between atoms: _270  and  _273
REMARK  111  A    between atoms: _273  and  _274
REMARK  112  A    between atoms: _277  and  _279
REMARK  113  A    between atoms: _279  and  _280
REMARK  114  A    between atoms: _279  and  _282
REMARK  115  A    between atoms: _282  and  _283
REMARK  116  A    between atoms: _286  and  _288
REMARK  117  A    between atoms: _288  and  _289
REMARK  118  A    between atoms: _288  and  _291
REMARK  119  A    between atoms: _291  and  _292
REMARK  120  A    between atoms: _295  and  _297
REMARK  121  A    between atoms: _297  and  _298
REMARK  122  A    between atoms: _297  and  _300
REMARK  123  A    between atoms: _300  and  _301
REMARK  124  A    between atoms: _304  and  _306
REMARK  125  A    between atoms: _306  and  _307
REMARK  126  A    between atoms: _306  and  _309
REMARK  127  A    between atoms: _309  and  _310
REMARK  128  A    between atoms: _313  and  _315
REMARK  129  A    between atoms: _315  and  _316
REMARK  130  A    between atoms: _318  and  _320
REMARK  131  A    between atoms: _320  and  _321
REMARK  132  A    between atoms: _324  and  _326
REMARK  133  A    between atoms: _326  and  _327
REMARK  134  A    between atoms: _326  and  _329
REMARK  135  A    between atoms: _329  and  _330
REMARK  136  A    between atoms: _333  and  _335
REMARK  137  A    between atoms: _335  and  _336
REMARK  138  A    between atoms: _335  and  _338
REMARK  139  A    between atoms: _338  and  _339
REMARK  140  A    between atoms: _342  and  _344
REMARK  141  A    between atoms: _344  and  _345
REMARK  142  A    between atoms: _344  and  _347
REMARK  143  A    between atoms: _347  and  _348
REMARK  144  A    between atoms: _350  and  _352
REMARK  145  A    between atoms: _352  and  _353
REMARK  146  A    between atoms: _352  and  _355
REMARK  147  A    between atoms: _358  and  _360
REMARK  148  A    between atoms: _360  and  _361
REMARK  149  A    between atoms: _360  and  _363
REMARK  150  A    between atoms: _363  and  _364
REMARK  151  A    between atoms: _367  and  _369
REMARK  152  A    between atoms: _369  and  _370
REMARK  153  A    between atoms: _372  and  _374
REMARK  154  A    between atoms: _374  and  _375
REMARK  155  A    between atoms: _374  and  _377
REMARK  156  A    between atoms: _377  and  _378
REMARK  157  A    between atoms: _381  and  _383
REMARK  158  A    between atoms: _383  and  _384
REMARK  159  A    between atoms: _386  and  _388
REMARK  160  A    between atoms: _388  and  _389
REMARK  161  A    between atoms: _391  and  _393
REMARK  162  A    between atoms: _393  and  _394
REMARK  163  A    between atoms: _393  and  _396
REMARK  164  A    between atoms: _399  and  _401
REMARK  165  A    between atoms: _401  and  _402
REMARK  166  A    between atoms: _404  and  _406
REMARK  167  A    between atoms: _406  and  _407
REMARK  168  A    between atoms: _409  and  _411
REMARK  169  A    between atoms: _411  and  _412
REMARK  170  A    between atoms: _411  and  _414
REMARK  171  A    between atoms: _414  and  _415
REMARK  172  A    between atoms: _420  and  _422
REMARK  173  A    between atoms: _422  and  _423
REMARK  174  A    between atoms: _422  and  _425
REMARK  175  A    between atoms: _428  and  _430
REMARK  176  A    between atoms: _430  and  _431
REMARK  177  A    between atoms: _430  and  _433
REMARK  178  A    between atoms: _433  and  _434
REMARK  179  A    between atoms: _437  and  _439
REMARK  180  A    between atoms: _439  and  _440
REMARK  181  A    between atoms: _439  and  _442
REMARK  182  A    between atoms: _442  and  _443
REMARK  183  A    between atoms: _446  and  _448
REMARK  184  A    between atoms: _448  and  _449
REMARK  185  A    between atoms: _448  and  _451
REMARK  186  A    between atoms: _451  and  _452
REMARK  187  A    between atoms: _456  and  _457
REMARK  188  A    between atoms: _462  and  _464
REMARK  189  A    between atoms: _464  and  _465
REMARK  190  A    between atoms: _464  and  _467
REMARK  191  A    between atoms: _470  and  _472
REMARK  192  A    between atoms: _472  and  _473
REMARK  193  A    between atoms: _472  and  _475
REMARK  194  A    between atoms: _475  and  _476
REMARK  195  A    between atoms: _479  and  _481
REMARK  196  A    between atoms: _481  and  _482
REMARK  197  A    between atoms: _481  and  _484
REMARK  198  A    between atoms: _484  and  _485
REMARK  199  A    between atoms: _488  and  _490
REMARK  200  A    between atoms: _490  and  _491
REMARK  201  A    between atoms: _493  and  _495
REMARK  202  A    between atoms: _495  and  _496
REMARK  203  A    between atoms: _495  and  _498
REMARK  204  A    between atoms: _498  and  _499
REMARK  205  A    between atoms: _499  and  _500
REMARK  206  A    between atoms: _500  and  _501
REMARK                            x       y       z     vdW  Elec       q    Type
REMARK                         _______ _______ _______ _____ _____    ______ ____
ROOT
ATOM      1  O   HOH     1      -8.700  26.758  -4.848  0.00  0.00    +0.000 OA
ENDROOT
TORSDOF 0
REMARK  Name = ../refined-set-2016/2fmb/2fmb_pocket.pdb
REMARK  206 active torsions:
REMARK  status: ('A' for Active; 'I' for Inactive)
REMARK    1  A    between atoms: _1  and  _3
REMARK    2  A    between atoms: _3  and  _4
REMARK    3  A    between atoms: _3  and  _6
REMARK    4  A    between atoms: _6  and  _7
REMARK    5  A    between atoms: _7  and  _8
REMARK    6  A    between atoms: _8  and  _9
REMARK    7  A    between atoms: _18  and  _20
REMARK    8  A    between atoms: _20  and  _21
REMARK    9  A    between atoms: _20  and  _23
REMARK   10  A    between atoms: _23  and  _24
REMARK   11  A    between atoms: _27  and  _29
REMARK   12  A    between atoms: _29  and  _30
REMARK   13  A    between atoms: _29  and  _32
REMARK   14  A    between atoms: _32  and  _33
REMARK   15  A    between atoms: _36  and  _38
REMARK   16  A    between atoms: _38  and  _39
REMARK   17  A    between atoms: _38  and  _41
REMARK   18  A    between atoms: _41  and  _42
REMARK   19  A    between atoms: _45  and  _47
REMARK   20  A    between atoms: _47  and  _48
REMARK   21  A    between atoms: _47  and  _50
REMARK   22  A    between atoms: _50  and  _51
REMARK   23  A    between atoms: _54  and  _56
REMARK   24  A    between atoms: _56  and  _57
REMARK   25  A    between atoms: _59  and  _61
REMARK   26  A    between atoms: _61  and  _62
REMARK   27  A    between atoms: _65  and  _67
REMARK   28  A    between atoms: _67  and  _68
REMARK   29  A    between atoms: _67  and  _70
REMARK   30  A    between atoms: _70  and  _71
REMARK   31  A    between atoms: _74  and  _76
REMARK   32  A    between atoms: _76  and  _77
REMARK   33  A    between atoms: _76  and  _79
REMARK   34  A    between atoms: _79  and  _80
REMARK   35  A    between atoms: _83  and  _85
REMARK   36  A    between atoms: _85  and  _86
REMARK   37  A    between atoms: _85  and  _88
REMARK   38  A    between atoms: _88  and  _89
REMARK   39  A    between atoms: _91  and  _93
REMARK   40  A    between atoms: _93  and  _94
REMARK   41  A    between atoms: _93  and  _96
REMARK   42  A    between atoms: _99  and  _101
REMARK   43  A    between atoms: _101  and  _102
REMARK   44  A    between atoms: _101  and  _104
REMARK   45  A    between atoms: _104  and  _105
REMARK   46  A    between atoms: _108  and  _110
REMARK   47  A    between atoms: _110  and  _111
REMARK   48  A    between atoms: _113  and  _115
REMARK   49  A    between atoms: _115  and  _116
REMARK   50  A    between atoms: _115  and  _118
REMARK   51  A    between atoms: _118  and  _119
REMARK   52  A    between atoms: _122  and  _124
REMARK   53  A    between atoms: _124  and  _125
REMARK   54  A    between atoms: _127  and  _129
REMARK   55  A    between atoms: _129  and  _130
REMARK   56  A    between atoms: _132  and  _134
REMARK   57  A    between atoms: _134  and  _135
REMARK   58  A    between atoms: _134  and  _137
REMARK   59  A    between atoms: _140  and  _142
REMARK   60  A    between atoms: _142  and  _143
REMARK   61  A    between atoms: _145  and  _147
REMARK   62  A    between atoms: _147  and  _148
REMARK   63  A    between atoms: _150  and  _152
REMARK   64  A    between atoms: _152  and  _153
REMARK   65  A    between atoms: _152  and  _155
REMARK   66  A    between atoms: _155  and  _156
REMARK   67  A    between atoms: _161  and  _163
REMARK   68  A    between atoms: _163  and  _164
REMARK   69  A    between atoms: _163  and  _166
REMARK   70  A    between atoms: _169  and  _171
REMARK   71  A    between atoms: _171  and  _172
REMARK   72  A    between atoms: _171  and  _174
REMARK   73  A    between atoms: _174  and  _175
REMARK   74  A    between atoms: _178  and  _180
REMARK   75  A    between atoms: _180  and  _181
REMARK   76  A    between atoms: _180  and  _183
REMARK   77  A    between atoms: _183  and  _184
REMARK   78  A    between atoms: _188  and  _189
REMARK   79  A    between atoms: _194  and  _196
REMARK   80  A    between atoms: _196  and  _197
REMARK   81  A    between atoms: _196  and  _199
REMARK   82  A    between atoms: _202  and  _204
REMARK   83  A    between atoms: _204  and  _205
REMARK   84  A    between atoms: _204  and  _207
REMARK   85  A    between atoms: _207  and  _208
REMARK   86  A    between atoms: _211  and  _213
REMARK   87  A    between atoms: _213  and  _214
REMARK   88  A    between atoms: _213  and  _216
REMARK   89  A    between atoms: _216  and  _217
REMARK   90  A    between atoms: _220  and  _222
REMARK   91  A    between atoms: _222  and  _223
REMARK   92  A    between atoms: _222  and  _225
REMARK   93  A    between atoms: _225  and  _226
REMARK   94  A    between atoms: _229  and  _231
REMARK   95  A    between atoms: _231  and  _232
REMARK   96  A    between atoms: _234  and  _236
REMARK   97  A    between atoms: _236  and  _237
REMARK   98  A    between atoms: _236  and  _239
REMARK   99  A    between atoms: _239  and  _240
REMARK  100  A    between atoms: _240  and  _241
REMARK  101  A    between atoms: _241  and  _242
REMARK  102  A    between atoms: _251  and  _253
REMARK  103  A    between atoms: _253  and  _254
REMARK  104  A    between atoms: _253  and  _256
REMARK  105  A    between atoms: _256  and  _257
REMARK  106  A    between atoms: _257  and  _258
REMARK  107  A    between atoms: _258  and  _259
REMARK  108  A    between atoms: _268  and  _270
REMARK  109  A    between atoms: _270  and  _271
REMARK  110  A    between atoms: _270  and  _273
REMARK  111  A    between atoms: _273  and  _274
REMARK  112  A    between atoms: _277  and  _279
REMARK  113  A    between atoms: _279  and  _280
REMARK  114  A    between atoms: _279  and  _282
REMARK  115  A    between atoms: _282  and  _283
REMARK  116  A    between atoms: _286  and  _288
REMARK  117  A    between atoms: _288  and  _289
REMARK  118  A    between atoms: _288  and  _291
REMARK  119  A    between atoms: _291  and  _292
REMARK  120  A    between atoms: _295  and  _297
REMARK  121  A    between atoms: _297  and  _298
REMARK  122  A    between atoms: _297  and  _300
REMARK  123  A    between atoms: _300  and  _301
REMARK  124  A    between atoms: _304  and  _306
REMARK  125  A    between atoms: _306  and  _307
REMARK  126  A    between atoms: _306  and  _309
REMARK  127  A    between atoms: _309  and  _310
REMARK  128  A    between atoms: _313  and  _315
REMARK  129  A    between atoms: _315  and  _316
REMARK  130  A    between atoms: _318  and  _320
REMARK  131  A    between atoms: _320  and  _321
REMARK  132  A    between atoms: _324  and  _326
REMARK  133  A    between atoms: _326  and  _327
REMARK  134  A    between atoms: _326  and  _329
REMARK  135  A    between atoms: _329  and  _330
REMARK  136  A    between atoms: _333  and  _335
REMARK  137  A    between atoms: _335  and  _336
REMARK  138  A    between atoms: _335  and  _338
REMARK  139  A    between atoms: _338  and  _339
REMARK  140  A    between atoms: _342  and  _344
REMARK  141  A    between atoms: _344  and  _345
REMARK  142  A    between atoms: _344  and  _347
REMARK  143  A    between atoms: _347  and  _348
REMARK  144  A    between atoms: _350  and  _352
REMARK  145  A    between atoms: _352  and  _353
REMARK  146  A    between atoms: _352  and  _355
REMARK  147  A    between atoms: _358  and  _360
REMARK  148  A    between atoms: _360  and  _361
REMARK  149  A    between atoms: _360  and  _363
REMARK  150  A    between atoms: _363  and  _364
REMARK  151  A    between atoms: _367  and  _369
REMARK  152  A    between atoms: _369  and  _370
REMARK  153  A    between atoms: _372  and  _374
REMARK  154  A    between atoms: _374  and  _375
REMARK  155  A    between atoms: _374  and  _377
REMARK  156  A    between atoms: _377  and  _378
REMARK  157  A    between atoms: _381  and  _383
REMARK  158  A    between atoms: _383  and  _384
REMARK  159  A    between atoms: _386  and  _388
REMARK  160  A    between atoms: _388  and  _389
REMARK  161  A    between atoms: _391  and  _393
REMARK  162  A    between atoms: _393  and  _394
REMARK  163  A    between atoms: _393  and  _396
REMARK  164  A    between atoms: _399  and  _401
REMARK  165  A    between atoms: _401  and  _402
REMARK  166  A    between atoms: _404  and  _406
REMARK  167  A    between atoms: _406  and  _407
REMARK  168  A    between atoms: _409  and  _411
REMARK  169  A    between atoms: _411  and  _412
REMARK  170  A    between atoms: _411  and  _414
REMARK  171  A    between atoms: _414  and  _415
REMARK  172  A    between atoms: _420  and  _422
REMARK  173  A    between atoms: _422  and  _423
REMARK  174  A    between atoms: _422  and  _425
REMARK  175  A    between atoms: _428  and  _430
REMARK  176  A    between atoms: _430  and  _431
REMARK  177  A    between atoms: _430  and  _433
REMARK  178  A    between atoms: _433  and  _434
REMARK  179  A    between atoms: _437  and  _439
REMARK  180  A    between atoms: _439  and  _440
REMARK  181  A    between atoms: _439  and  _442
REMARK  182  A    between atoms: _442  and  _443
REMARK  183  A    between atoms: _446  and  _448
REMARK  184  A    between atoms: _448  and  _449
REMARK  185  A    between atoms: _448  and  _451
REMARK  186  A    between atoms: _451  and  _452
REMARK  187  A    between atoms: _456  and  _457
REMARK  188  A    between atoms: _462  and  _464
REMARK  189  A    between atoms: _464  and  _465
REMARK  190  A    between atoms: _464  and  _467
REMARK  191  A    between atoms: _470  and  _472
REMARK  192  A    between atoms: _472  and  _473
REMARK  193  A    between atoms: _472  and  _475
REMARK  194  A    between atoms: _475  and  _476
REMARK  195  A    between atoms: _479  and  _481
REMARK  196  A    between atoms: _481  and  _482
REMARK  197  A    between atoms: _481  and  _484
REMARK  198  A    between atoms: _484  and  _485
REMARK  199  A    between atoms: _488  and  _490
REMARK  200  A    between atoms: _490  and  _491
REMARK  201  A    between atoms: _493  and  _495
REMARK  202  A    between atoms: _495  and  _496
REMARK  203  A    between atoms: _495  and  _498
REMARK  204  A    between atoms: _498  and  _499
REMARK  205  A    between atoms: _499  and  _500
REMARK  206  A    between atoms: _500  and  _501
REMARK                            x       y       z     vdW  Elec       q    Type
REMARK                         _______ _______ _______ _____ _____    ______ ____
ROOT
ATOM      1  O   HOH     1      -7.696  26.772  -2.148  0.00  0.00    +0.000 OA
ENDROOT
TORSDOF 0
REMARK  Name = ../refined-set-2016/2fmb/2fmb_pocket.pdb
REMARK  206 active torsions:
REMARK  status: ('A' for Active; 'I' for Inactive)
REMARK    1  A    between atoms: _1  and  _3
REMARK    2  A    between atoms: _3  and  _4
REMARK    3  A    between atoms: _3  and  _6
REMARK    4  A    between atoms: _6  and  _7
REMARK    5  A    between atoms: _7  and  _8
REMARK    6  A    between atoms: _8  and  _9
REMARK    7  A    between atoms: _18  and  _20
REMARK    8  A    between atoms: _20  and  _21
REMARK    9  A    between atoms: _20  and  _23
REMARK   10  A    between atoms: _23  and  _24
REMARK   11  A    between atoms: _27  and  _29
REMARK   12  A    between atoms: _29  and  _30
REMARK   13  A    between atoms: _29  and  _32
REMARK   14  A    between atoms: _32  and  _33
REMARK   15  A    between atoms: _36  and  _38
REMARK   16  A    between atoms: _38  and  _39
REMARK   17  A    between atoms: _38  and  _41
REMARK   18  A    between atoms: _41  and  _42
REMARK   19  A    between atoms: _45  and  _47
REMARK   20  A    between atoms: _47  and  _48
REMARK   21  A    between atoms: _47  and  _50
REMARK   22  A    between atoms: _50  and  _51
REMARK   23  A    between atoms: _54  and  _56
REMARK   24  A    between atoms: _56  and  _57
REMARK   25  A    between atoms: _59  and  _61
REMARK   26  A    between atoms: _61  and  _62
REMARK   27  A    between atoms: _65  and  _67
REMARK   28  A    between atoms: _67  and  _68
REMARK   29  A    between atoms: _67  and  _70
REMARK   30  A    between atoms: _70  and  _71
REMARK   31  A    between atoms: _74  and  _76
REMARK   32  A    between atoms: _76  and  _77
REMARK   33  A    between atoms: _76  and  _79
REMARK   34  A    between atoms: _79  and  _80
REMARK   35  A    between atoms: _83  and  _85
REMARK   36  A    between atoms: _85  and  _86
REMARK   37  A    between atoms: _85  and  _88
REMARK   38  A    between atoms: _88  and  _89
REMARK   39  A    between atoms: _91  and  _93
REMARK   40  A    between atoms: _93  and  _94
REMARK   41  A    between atoms: _93  and  _96
REMARK   42  A    between atoms: _99  and  _101
REMARK   43  A    between atoms: _101  and  _102
REMARK   44  A    between atoms: _101  and  _104
REMARK   45  A    between atoms: _104  and  _105
REMARK   46  A    between atoms: _108  and  _110
REMARK   47  A    between atoms: _110  and  _111
REMARK   48  A    between atoms: _113  and  _115
REMARK   49  A    between atoms: _115  and  _116
REMARK   50  A    between atoms: _115  and  _118
REMARK   51  A    between atoms: _118  and  _119
REMARK   52  A    between atoms: _122  and  _124
REMARK   53  A    between atoms: _124  and  _125
REMARK   54  A    between atoms: _127  and  _129
REMARK   55  A    between atoms: _129  and  _130
REMARK   56  A    between atoms: _132  and  _134
REMARK   57  A    between atoms: _134  and  _135
REMARK   58  A    between atoms: _134  and  _137
REMARK   59  A    between atoms: _140  and  _142
REMARK   60  A    between atoms: _142  and  _143
REMARK   61  A    between atoms: _145  and  _147
REMARK   62  A    between atoms: _147  and  _148
REMARK   63  A    between atoms: _150  and  _152
REMARK   64  A    between atoms: _152  and  _153
REMARK   65  A    between atoms: _152  and  _155
REMARK   66  A    between atoms: _155  and  _156
REMARK   67  A    between atoms: _161  and  _163
REMARK   68  A    between atoms: _163  and  _164
REMARK   69  A    between atoms: _163  and  _166
REMARK   70  A    between atoms: _169  and  _171
REMARK   71  A    between atoms: _171  and  _172
REMARK   72  A    between atoms: _171  and  _174
REMARK   73  A    between atoms: _174  and  _175
REMARK   74  A    between atoms: _178  and  _180
REMARK   75  A    between atoms: _180  and  _181
REMARK   76  A    between atoms: _180  and  _183
REMARK   77  A    between atoms: _183  and  _184
REMARK   78  A    between atoms: _188  and  _189
REMARK   79  A    between atoms: _194  and  _196
REMARK   80  A    between atoms: _196  and  _197
REMARK   81  A    between atoms: _196  and  _199
REMARK   82  A    between atoms: _202  and  _204
REMARK   83  A    between atoms: _204  and  _205
REMARK   84  A    between atoms: _204  and  _207
REMARK   85  A    between atoms: _207  and  _208
REMARK   86  A    between atoms: _211  and  _213
REMARK   87  A    between atoms: _213  and  _214
REMARK   88  A    between atoms: _213  and  _216
REMARK   89  A    between atoms: _216  and  _217
REMARK   90  A    between atoms: _220  and  _222
REMARK   91  A    between atoms: _222  and  _223
REMARK   92  A    between atoms: _222  and  _225
REMARK   93  A    between atoms: _225  and  _226
REMARK   94  A    between atoms: _229  and  _231
REMARK   95  A    between atoms: _231  and  _232
REMARK   96  A    between atoms: _234  and  _236
REMARK   97  A    between atoms: _236  and  _237
REMARK   98  A    between atoms: _236  and  _239
REMARK   99  A    between atoms: _239  and  _240
REMARK  100  A    between atoms: _240  and  _241
REMARK  101  A    between atoms: _241  and  _242
REMARK  102  A    between atoms: _251  and  _253
REMARK  103  A    between atoms: _253  and  _254
REMARK  104  A    between atoms: _253  and  _256
REMARK  105  A    between atoms: _256  and  _257
REMARK  106  A    between atoms: _257  and  _258
REMARK  107  A    between atoms: _258  and  _259
REMARK  108  A    between atoms: _268  and  _270
REMARK  109  A    between atoms: _270  and  _271
REMARK  110  A    between atoms: _270  and  _273
REMARK  111  A    between atoms: _273  and  _274
REMARK  112  A    between atoms: _277  and  _279
REMARK  113  A    between atoms: _279  and  _280
REMARK  114  A    between atoms: _279  and  _282
REMARK  115  A    between atoms: _282  and  _283
REMARK  116  A    between atoms: _286  and  _288
REMARK  117  A    between atoms: _288  and  _289
REMARK  118  A    between atoms: _288  and  _291
REMARK  119  A    between atoms: _291  and  _292
REMARK  120  A    between atoms: _295  and  _297
REMARK  121  A    between atoms: _297  and  _298
REMARK  122  A    between atoms: _297  and  _300
REMARK  123  A    between atoms: _300  and  _301
REMARK  124  A    between atoms: _304  and  _306
REMARK  125  A    between atoms: _306  and  _307
REMARK  126  A    between atoms: _306  and  _309
REMARK  127  A    between atoms: _309  and  _310
REMARK  128  A    between atoms: _313  and  _315
REMARK  129  A    between atoms: _315  and  _316
REMARK  130  A    between atoms: _318  and  _320
REMARK  131  A    between atoms: _320  and  _321
REMARK  132  A    between atoms: _324  and  _326
REMARK  133  A    between atoms: _326  and  _327
REMARK  134  A    between atoms: _326  and  _329
REMARK  135  A    between atoms: _329  and  _330
REMARK  136  A    between atoms: _333  and  _335
REMARK  137  A    between atoms: _335  and  _336
REMARK  138  A    between atoms: _335  and  _338
REMARK  139  A    between atoms: _338  and  _339
REMARK  140  A    between atoms: _342  and  _344
REMARK  141  A    between atoms: _344  and  _345
REMARK  142  A    between atoms: _344  and  _347
REMARK  143  A    between atoms: _347  and  _348
REMARK  144  A    between atoms: _350  and  _352
REMARK  145  A    between atoms: _352  and  _353
REMARK  146  A    between atoms: _352  and  _355
REMARK  147  A    between atoms: _358  and  _360
REMARK  148  A    between atoms: _360  and  _361
REMARK  149  A    between atoms: _360  and  _363
REMARK  150  A    between atoms: _363  and  _364
REMARK  151  A    between atoms: _367  and  _369
REMARK  152  A    between atoms: _369  and  _370
REMARK  153  A    between atoms: _372  and  _374
REMARK  154  A    between atoms: _374  and  _375
REMARK  155  A    between atoms: _374  and  _377
REMARK  156  A    between atoms: _377  and  _378
REMARK  157  A    between atoms: _381  and  _383
REMARK  158  A    between atoms: _383  and  _384
REMARK  159  A    between atoms: _386  and  _388
REMARK  160  A    between atoms: _388  and  _389
REMARK  161  A    between atoms: _391  and  _393
REMARK  162  A    between atoms: _393  and  _394
REMARK  163  A    between atoms: _393  and  _396
REMARK  164  A    between atoms: _399  and  _401
REMARK  165  A    between atoms: _401  and  _402
REMARK  166  A    between atoms: _404  and  _406
REMARK  167  A    between atoms: _406  and  _407
REMARK  168  A    between atoms: _409  and  _411
REMARK  169  A    between atoms: _411  and  _412
REMARK  170  A    between atoms: _411  and  _414
REMARK  171  A    between atoms: _414  and  _415
REMARK  172  A    between atoms: _420  and  _422
REMARK  173  A    between atoms: _422  and  _423
REMARK  174  A    between atoms: _422  and  _425
REMARK  175  A    between atoms: _428  and  _430
REMARK  176  A    between atoms: _430  and  _431
REMARK  177  A    between atoms: _430  and  _433
REMARK  178  A    between atoms: _433  and  _434
REMARK  179  A    between atoms: _437  and  _439
REMARK  180  A    between atoms: _439  and  _440
REMARK  181  A    between atoms: _439  and  _442
REMARK  182  A    between atoms: _442  and  _443
REMARK  183  A    between atoms: _446  and  _448
REMARK  184  A    between atoms: _448  and  _449
REMARK  185  A    between atoms: _448  and  _451
REMARK  186  A    between atoms: _451  and  _452
REMARK  187  A    between atoms: _456  and  _457
REMARK  188  A    between atoms: _462  and  _464
REMARK  189  A    between atoms: _464  and  _465
REMARK  190  A    between atoms: _464  and  _467
REMARK  191  A    between atoms: _470  and  _472
REMARK  192  A    between atoms: _472  and  _473
REMARK  193  A    between atoms: _472  and  _475
REMARK  194  A    between atoms: _475  and  _476
REMARK  195  A    between atoms: _479  and  _481
REMARK  196  A    between atoms: _481  and  _482
REMARK  197  A    between atoms: _481  and  _484
REMARK  198  A    between atoms: _484  and  _485
REMARK  199  A    between atoms: _488  and  _490
REMARK  200  A    between atoms: _490  and  _491
REMARK  201  A    between atoms: _493  and  _495
REMARK  202  A    between atoms: _495  and  _496
REMARK  203  A    between atoms: _495  and  _498
REMARK  204  A    between atoms: _498  and  _499
REMARK  205  A    between atoms: _499  and  _500
REMARK  206  A    between atoms: _500  and  _501
REMARK                            x       y       z     vdW  Elec       q    Type
REMARK                         _______ _______ _______ _____ _____    ______ ____
ROOT
ATOM      1  O   HOH     1      12.360  12.098   4.050  0.00  0.00    +0.000 OA
ENDROOT
TORSDOF 0
REMARK  Name = ../refined-set-2016/2fmb/2fmb_pocket.pdb
REMARK  206 active torsions:
REMARK  status: ('A' for Active; 'I' for Inactive)
REMARK    1  A    between atoms: _1  and  _3
REMARK    2  A    between atoms: _3  and  _4
REMARK    3  A    between atoms: _3  and  _6
REMARK    4  A    between atoms: _6  and  _7
REMARK    5  A    between atoms: _7  and  _8
REMARK    6  A    between atoms: _8  and  _9
REMARK    7  A    between atoms: _18  and  _20
REMARK    8  A    between atoms: _20  and  _21
REMARK    9  A    between atoms: _20  and  _23
REMARK   10  A    between atoms: _23  and  _24
REMARK   11  A    between atoms: _27  and  _29
REMARK   12  A    between atoms: _29  and  _30
REMARK   13  A    between atoms: _29  and  _32
REMARK   14  A    between atoms: _32  and  _33
REMARK   15  A    between atoms: _36  and  _38
REMARK   16  A    between atoms: _38  and  _39
REMARK   17  A    between atoms: _38  and  _41
REMARK   18  A    between atoms: _41  and  _42
REMARK   19  A    between atoms: _45  and  _47
REMARK   20  A    between atoms: _47  and  _48
REMARK   21  A    between atoms: _47  and  _50
REMARK   22  A    between atoms: _50  and  _51
REMARK   23  A    between atoms: _54  and  _56
REMARK   24  A    between atoms: _56  and  _57
REMARK   25  A    between atoms: _59  and  _61
REMARK   26  A    between atoms: _61  and  _62
REMARK   27  A    between atoms: _65  and  _67
REMARK   28  A    between atoms: _67  and  _68
REMARK   29  A    between atoms: _67  and  _70
REMARK   30  A    between atoms: _70  and  _71
REMARK   31  A    between atoms: _74  and  _76
REMARK   32  A    between atoms: _76  and  _77
REMARK   33  A    between atoms: _76  and  _79
REMARK   34  A    between atoms: _79  and  _80
REMARK   35  A    between atoms: _83  and  _85
REMARK   36  A    between atoms: _85  and  _86
REMARK   37  A    between atoms: _85  and  _88
REMARK   38  A    between atoms: _88  and  _89
REMARK   39  A    between atoms: _91  and  _93
REMARK   40  A    between atoms: _93  and  _94
REMARK   41  A    between atoms: _93  and  _96
REMARK   42  A    between atoms: _99  and  _101
REMARK   43  A    between atoms: _101  and  _102
REMARK   44  A    between atoms: _101  and  _104
REMARK   45  A    between atoms: _104  and  _105
REMARK   46  A    between atoms: _108  and  _110
REMARK   47  A    between atoms: _110  and  _111
REMARK   48  A    between atoms: _113  and  _115
REMARK   49  A    between atoms: _115  and  _116
REMARK   50  A    between atoms: _115  and  _118
REMARK   51  A    between atoms: _118  and  _119
REMARK   52  A    between atoms: _122  and  _124
REMARK   53  A    between atoms: _124  and  _125
REMARK   54  A    between atoms: _127  and  _129
REMARK   55  A    between atoms: _129  and  _130
REMARK   56  A    between atoms: _132  and  _134
REMARK   57  A    between atoms: _134  and  _135
REMARK   58  A    between atoms: _134  and  _137
REMARK   59  A    between atoms: _140  and  _142
REMARK   60  A    between atoms: _142  and  _143
REMARK   61  A    between atoms: _145  and  _147
REMARK   62  A    between atoms: _147  and  _148
REMARK   63  A    between atoms: _150  and  _152
REMARK   64  A    between atoms: _152  and  _153
REMARK   65  A    between atoms: _152  and  _155
REMARK   66  A    between atoms: _155  and  _156
REMARK   67  A    between atoms: _161  and  _163
REMARK   68  A    between atoms: _163  and  _164
REMARK   69  A    between atoms: _163  and  _166
REMARK   70  A    between atoms: _169  and  _171
REMARK   71  A    between atoms: _171  and  _172
REMARK   72  A    between atoms: _171  and  _174
REMARK   73  A    between atoms: _174  and  _175
REMARK   74  A    between atoms: _178  and  _180
REMARK   75  A    between atoms: _180  and  _181
REMARK   76  A    between atoms: _180  and  _183
REMARK   77  A    between atoms: _183  and  _184
REMARK   78  A    between atoms: _188  and  _189
REMARK   79  A    between atoms: _194  and  _196
REMARK   80  A    between atoms: _196  and  _197
REMARK   81  A    between atoms: _196  and  _199
REMARK   82  A    between atoms: _202  and  _204
REMARK   83  A    between atoms: _204  and  _205
REMARK   84  A    between atoms: _204  and  _207
REMARK   85  A    between atoms: _207  and  _208
REMARK   86  A    between atoms: _211  and  _213
REMARK   87  A    between atoms: _213  and  _214
REMARK   88  A    between atoms: _213  and  _216
REMARK   89  A    between atoms: _216  and  _217
REMARK   90  A    between atoms: _220  and  _222
REMARK   91  A    between atoms: _222  and  _223
REMARK   92  A    between atoms: _222  and  _225
REMARK   93  A    between atoms: _225  and  _226
REMARK   94  A    between atoms: _229  and  _231
REMARK   95  A    between atoms: _231  and  _232
REMARK   96  A    between atoms: _234  and  _236
REMARK   97  A    between atoms: _236  and  _237
REMARK   98  A    between atoms: _236  and  _239
REMARK   99  A    between atoms: _239  and  _240
REMARK  100  A    between atoms: _240  and  _241
REMARK  101  A    between atoms: _241  and  _242
REMARK  102  A    between atoms: _251  and  _253
REMARK  103  A    between atoms: _253  and  _254
REMARK  104  A    between atoms: _253  and  _256
REMARK  105  A    between atoms: _256  and  _257
REMARK  106  A    between atoms: _257  and  _258
REMARK  107  A    between atoms: _258  and  _259
REMARK  108  A    between atoms: _268  and  _270
REMARK  109  A    between atoms: _270  and  _271
REMARK  110  A    between atoms: _270  and  _273
REMARK  111  A    between atoms: _273  and  _274
REMARK  112  A    between atoms: _277  and  _279
REMARK  113  A    between atoms: _279  and  _280
REMARK  114  A    between atoms: _279  and  _282
REMARK  115  A    between atoms: _282  and  _283
REMARK  116  A    between atoms: _286  and  _288
REMARK  117  A    between atoms: _288  and  _289
REMARK  118  A    between atoms: _288  and  _291
REMARK  119  A    between atoms: _291  and  _292
REMARK  120  A    between atoms: _295  and  _297
REMARK  121  A    between atoms: _297  and  _298
REMARK  122  A    between atoms: _297  and  _300
REMARK  123  A    between atoms: _300  and  _301
REMARK  124  A    between atoms: _304  and  _306
REMARK  125  A    between atoms: _306  and  _307
REMARK  126  A    between atoms: _306  and  _309
REMARK  127  A    between atoms: _309  and  _310
REMARK  128  A    between atoms: _313  and  _315
REMARK  129  A    between atoms: _315  and  _316
REMARK  130  A    between atoms: _318  and  _320
REMARK  131  A    between atoms: _320  and  _321
REMARK  132  A    between atoms: _324  and  _326
REMARK  133  A    between atoms: _326  and  _327
REMARK  134  A    between atoms: _326  and  _329
REMARK  135  A    between atoms: _329  and  _330
REMARK  136  A    between atoms: _333  and  _335
REMARK  137  A    between atoms: _335  and  _336
REMARK  138  A    between atoms: _335  and  _338
REMARK  139  A    between atoms: _338  and  _339
REMARK  140  A    between atoms: _342  and  _344
REMARK  141  A    between atoms: _344  and  _345
REMARK  142  A    between atoms: _344  and  _347
REMARK  143  A    between atoms: _347  and  _348
REMARK  144  A    between atoms: _350  and  _352
REMARK  145  A    between atoms: _352  and  _353
REMARK  146  A    between atoms: _352  and  _355
REMARK  147  A    between atoms: _358  and  _360
REMARK  148  A    between atoms: _360  and  _361
REMARK  149  A    between atoms: _360  and  _363
REMARK  150  A    between atoms: _363  and  _364
REMARK  151  A    between atoms: _367  and  _369
REMARK  152  A    between atoms: _369  and  _370
REMARK  153  A    between atoms: _372  and  _374
REMARK  154  A    between atoms: _374  and  _375
REMARK  155  A    between atoms: _374  and  _377
REMARK  156  A    between atoms: _377  and  _378
REMARK  157  A    between atoms: _381  and  _383
REMARK  158  A    between atoms: _383  and  _384
REMARK  159  A    between atoms: _386  and  _388
REMARK  160  A    between atoms: _388  and  _389
REMARK  161  A    between atoms: _391  and  _393
REMARK  162  A    between atoms: _393  and  _394
REMARK  163  A    between atoms: _393  and  _396
REMARK  164  A    between atoms: _399  and  _401
REMARK  165  A    between atoms: _401  and  _402
REMARK  166  A    between atoms: _404  and  _406
REMARK  167  A    between atoms: _406  and  _407
REMARK  168  A    between atoms: _409  and  _411
REMARK  169  A    between atoms: _411  and  _412
REMARK  170  A    between atoms: _411  and  _414
REMARK  171  A    between atoms: _414  and  _415
REMARK  172  A    between atoms: _420  and  _422
REMARK  173  A    between atoms: _422  and  _423
REMARK  174  A    between atoms: _422  and  _425
REMARK  175  A    between atoms: _428  and  _430
REMARK  176  A    between atoms: _430  and  _431
REMARK  177  A    between atoms: _430  and  _433
REMARK  178  A    between atoms: _433  and  _434
REMARK  179  A    between atoms: _437  and  _439
REMARK  180  A    between atoms: _439  and  _440
REMARK  181  A    between atoms: _439  and  _442
REMARK  182  A    between atoms: _442  and  _443
REMARK  183  A    between atoms: _446  and  _448
REMARK  184  A    between atoms: _448  and  _449
REMARK  185  A    between atoms: _448  and  _451
REMARK  186  A    between atoms: _451  and  _452
REMARK  187  A    between atoms: _456  and  _457
REMARK  188  A    between atoms: _462  and  _464
REMARK  189  A    between atoms: _464  and  _465
REMARK  190  A    between atoms: _464  and  _467
REMARK  191  A    between atoms: _470  and  _472
REMARK  192  A    between atoms: _472  and  _473
REMARK  193  A    between atoms: _472  and  _475
REMARK  194  A    between atoms: _475  and  _476
REMARK  195  A    between atoms: _479  and  _481
REMARK  196  A    between atoms: _481  and  _482
REMARK  197  A    between atoms: _481  and  _484
REMARK  198  A    between atoms: _484  and  _485
REMARK  199  A    between atoms: _488  and  _490
REMARK  200  A    between atoms: _490  and  _491
REMARK  201  A    between atoms: _493  and  _495
REMARK  202  A    between atoms: _495  and  _496
REMARK  203  A    between atoms: _495  and  _498
REMARK  204  A    between atoms: _498  and  _499
REMARK  205  A    between atoms: _499  and  _500
REMARK  206  A    between atoms: _500  and  _501
REMARK                            x       y       z     vdW  Elec       q    Type
REMARK                         _______ _______ _______ _____ _____    ______ ____
ROOT
ATOM      1  O   HOH     1      -4.820  23.959 -13.642  0.00  0.00    +0.000 OA
ENDROOT
TORSDOF 0
REMARK  Name = ../refined-set-2016/2fmb/2fmb_pocket.pdb
REMARK  206 active torsions:
REMARK  status: ('A' for Active; 'I' for Inactive)
REMARK    1  A    between atoms: _1  and  _3
REMARK    2  A    between atoms: _3  and  _4
REMARK    3  A    between atoms: _3  and  _6
REMARK    4  A    between atoms: _6  and  _7
REMARK    5  A    between atoms: _7  and  _8
REMARK    6  A    between atoms: _8  and  _9
REMARK    7  A    between atoms: _18  and  _20
REMARK    8  A    between atoms: _20  and  _21
REMARK    9  A    between atoms: _20  and  _23
REMARK   10  A    between atoms: _23  and  _24
REMARK   11  A    between atoms: _27  and  _29
REMARK   12  A    between atoms: _29  and  _30
REMARK   13  A    between atoms: _29  and  _32
REMARK   14  A    between atoms: _32  and  _33
REMARK   15  A    between atoms: _36  and  _38
REMARK   16  A    between atoms: _38  and  _39
REMARK   17  A    between atoms: _38  and  _41
REMARK   18  A    between atoms: _41  and  _42
REMARK   19  A    between atoms: _45  and  _47
REMARK   20  A    between atoms: _47  and  _48
REMARK   21  A    between atoms: _47  and  _50
REMARK   22  A    between atoms: _50  and  _51
REMARK   23  A    between atoms: _54  and  _56
REMARK   24  A    between atoms: _56  and  _57
REMARK   25  A    between atoms: _59  and  _61
REMARK   26  A    between atoms: _61  and  _62
REMARK   27  A    between atoms: _65  and  _67
REMARK   28  A    between atoms: _67  and  _68
REMARK   29  A    between atoms: _67  and  _70
REMARK   30  A    between atoms: _70  and  _71
REMARK   31  A    between atoms: _74  and  _76
REMARK   32  A    between atoms: _76  and  _77
REMARK   33  A    between atoms: _76  and  _79
REMARK   34  A    between atoms: _79  and  _80
REMARK   35  A    between atoms: _83  and  _85
REMARK   36  A    between atoms: _85  and  _86
REMARK   37  A    between atoms: _85  and  _88
REMARK   38  A    between atoms: _88  and  _89
REMARK   39  A    between atoms: _91  and  _93
REMARK   40  A    between atoms: _93  and  _94
REMARK   41  A    between atoms: _93  and  _96
REMARK   42  A    between atoms: _99  and  _101
REMARK   43  A    between atoms: _101  and  _102
REMARK   44  A    between atoms: _101  and  _104
REMARK   45  A    between atoms: _104  and  _105
REMARK   46  A    between atoms: _108  and  _110
REMARK   47  A    between atoms: _110  and  _111
REMARK   48  A    between atoms: _113  and  _115
REMARK   49  A    between atoms: _115  and  _116
REMARK   50  A    between atoms: _115  and  _118
REMARK   51  A    between atoms: _118  and  _119
REMARK   52  A    between atoms: _122  and  _124
REMARK   53  A    between atoms: _124  and  _125
REMARK   54  A    between atoms: _127  and  _129
REMARK   55  A    between atoms: _129  and  _130
REMARK   56  A    between atoms: _132  and  _134
REMARK   57  A    between atoms: _134  and  _135
REMARK   58  A    between atoms: _134  and  _137
REMARK   59  A    between atoms: _140  and  _142
REMARK   60  A    between atoms: _142  and  _143
REMARK   61  A    between atoms: _145  and  _147
REMARK   62  A    between atoms: _147  and  _148
REMARK   63  A    between atoms: _150  and  _152
REMARK   64  A    between atoms: _152  and  _153
REMARK   65  A    between atoms: _152  and  _155
REMARK   66  A    between atoms: _155  and  _156
REMARK   67  A    between atoms: _161  and  _163
REMARK   68  A    between atoms: _163  and  _164
REMARK   69  A    between atoms: _163  and  _166
REMARK   70  A    between atoms: _169  and  _171
REMARK   71  A    between atoms: _171  and  _172
REMARK   72  A    between atoms: _171  and  _174
REMARK   73  A    between atoms: _174  and  _175
REMARK   74  A    between atoms: _178  and  _180
REMARK   75  A    between atoms: _180  and  _181
REMARK   76  A    between atoms: _180  and  _183
REMARK   77  A    between atoms: _183  and  _184
REMARK   78  A    between atoms: _188  and  _189
REMARK   79  A    between atoms: _194  and  _196
REMARK   80  A    between atoms: _196  and  _197
REMARK   81  A    between atoms: _196  and  _199
REMARK   82  A    between atoms: _202  and  _204
REMARK   83  A    between atoms: _204  and  _205
REMARK   84  A    between atoms: _204  and  _207
REMARK   85  A    between atoms: _207  and  _208
REMARK   86  A    between atoms: _211  and  _213
REMARK   87  A    between atoms: _213  and  _214
REMARK   88  A    between atoms: _213  and  _216
REMARK   89  A    between atoms: _216  and  _217
REMARK   90  A    between atoms: _220  and  _222
REMARK   91  A    between atoms: _222  and  _223
REMARK   92  A    between atoms: _222  and  _225
REMARK   93  A    between atoms: _225  and  _226
REMARK   94  A    between atoms: _229  and  _231
REMARK   95  A    between atoms: _231  and  _232
REMARK   96  A    between atoms: _234  and  _236
REMARK   97  A    between atoms: _236  and  _237
REMARK   98  A    between atoms: _236  and  _239
REMARK   99  A    between atoms: _239  and  _240
REMARK  100  A    between atoms: _240  and  _241
REMARK  101  A    between atoms: _241  and  _242
REMARK  102  A    between atoms: _251  and  _253
REMARK  103  A    between atoms: _253  and  _254
REMARK  104  A    between atoms: _253  and  _256
REMARK  105  A    between atoms: _256  and  _257
REMARK  106  A    between atoms: _257  and  _258
REMARK  107  A    between atoms: _258  and  _259
REMARK  108  A    between atoms: _268  and  _270
REMARK  109  A    between atoms: _270  and  _271
REMARK  110  A    between atoms: _270  and  _273
REMARK  111  A    between atoms: _273  and  _274
REMARK  112  A    between atoms: _277  and  _279
REMARK  113  A    between atoms: _279  and  _280
REMARK  114  A    between atoms: _279  and  _282
REMARK  115  A    between atoms: _282  and  _283
REMARK  116  A    between atoms: _286  and  _288
REMARK  117  A    between atoms: _288  and  _289
REMARK  118  A    between atoms: _288  and  _291
REMARK  119  A    between atoms: _291  and  _292
REMARK  120  A    between atoms: _295  and  _297
REMARK  121  A    between atoms: _297  and  _298
REMARK  122  A    between atoms: _297  and  _300
REMARK  123  A    between atoms: _300  and  _301
REMARK  124  A    between atoms: _304  and  _306
REMARK  125  A    between atoms: _306  and  _307
REMARK  126  A    between atoms: _306  and  _309
REMARK  127  A    between atoms: _309  and  _310
REMARK  128  A    between atoms: _313  and  _315
REMARK  129  A    between atoms: _315  and  _316
REMARK  130  A    between atoms: _318  and  _320
REMARK  131  A    between atoms: _320  and  _321
REMARK  132  A    between atoms: _324  and  _326
REMARK  133  A    between atoms: _326  and  _327
REMARK  134  A    between atoms: _326  and  _329
REMARK  135  A    between atoms: _329  and  _330
REMARK  136  A    between atoms: _333  and  _335
REMARK  137  A    between atoms: _335  and  _336
REMARK  138  A    between atoms: _335  and  _338
REMARK  139  A    between atoms: _338  and  _339
REMARK  140  A    between atoms: _342  and  _344
REMARK  141  A    between atoms: _344  and  _345
REMARK  142  A    between atoms: _344  and  _347
REMARK  143  A    between atoms: _347  and  _348
REMARK  144  A    between atoms: _350  and  _352
REMARK  145  A    between atoms: _352  and  _353
REMARK  146  A    between atoms: _352  and  _355
REMARK  147  A    between atoms: _358  and  _360
REMARK  148  A    between atoms: _360  and  _361
REMARK  149  A    between atoms: _360  and  _363
REMARK  150  A    between atoms: _363  and  _364
REMARK  151  A    between atoms: _367  and  _369
REMARK  152  A    between atoms: _369  and  _370
REMARK  153  A    between atoms: _372  and  _374
REMARK  154  A    between atoms: _374  and  _375
REMARK  155  A    between atoms: _374  and  _377
REMARK  156  A    between atoms: _377  and  _378
REMARK  157  A    between atoms: _381  and  _383
REMARK  158  A    between atoms: _383  and  _384
REMARK  159  A    between atoms: _386  and  _388
REMARK  160  A    between atoms: _388  and  _389
REMARK  161  A    between atoms: _391  and  _393
REMARK  162  A    between atoms: _393  and  _394
REMARK  163  A    between atoms: _393  and  _396
REMARK  164  A    between atoms: _399  and  _401
REMARK  165  A    between atoms: _401  and  _402
REMARK  166  A    between atoms: _404  and  _406
REMARK  167  A    between atoms: _406  and  _407
REMARK  168  A    between atoms: _409  and  _411
REMARK  169  A    between atoms: _411  and  _412
REMARK  170  A    between atoms: _411  and  _414
REMARK  171  A    between atoms: _414  and  _415
REMARK  172  A    between atoms: _420  and  _422
REMARK  173  A    between atoms: _422  and  _423
REMARK  174  A    between atoms: _422  and  _425
REMARK  175  A    between atoms: _428  and  _430
REMARK  176  A    between atoms: _430  and  _431
REMARK  177  A    between atoms: _430  and  _433
REMARK  178  A    between atoms: _433  and  _434
REMARK  179  A    between atoms: _437  and  _439
REMARK  180  A    between atoms: _439  and  _440
REMARK  181  A    between atoms: _439  and  _442
REMARK  182  A    between atoms: _442  and  _443
REMARK  183  A    between atoms: _446  and  _448
REMARK  184  A    between atoms: _448  and  _449
REMARK  185  A    between atoms: _448  and  _451
REMARK  186  A    between atoms: _451  and  _452
REMARK  187  A    between atoms: _456  and  _457
REMARK  188  A    between atoms: _462  and  _464
REMARK  189  A    between atoms: _464  and  _465
REMARK  190  A    between atoms: _464  and  _467
REMARK  191  A    between atoms: _470  and  _472
REMARK  192  A    between atoms: _472  and  _473
REMARK  193  A    between atoms: _472  and  _475
REMARK  194  A    between atoms: _475  and  _476
REMARK  195  A    between atoms: _479  and  _481
REMARK  196  A    between atoms: _481  and  _482
REMARK  197  A    between atoms: _481  and  _484
REMARK  198  A    between atoms: _484  and  _485
REMARK  199  A    between atoms: _488  and  _490
REMARK  200  A    between atoms: _490  and  _491
REMARK  201  A    between atoms: _493  and  _495
REMARK  202  A    between atoms: _495  and  _496
REMARK  203  A    between atoms: _495  and  _498
REMARK  204  A    between atoms: _498  and  _499
REMARK  205  A    between atoms: _499  and  _500
REMARK  206  A    between atoms: _500  and  _501
REMARK                            x       y       z     vdW  Elec       q    Type
REMARK                         _______ _______ _______ _____ _____    ______ ____
ROOT
ATOM      1  O   HOH     1      -4.123  27.394   4.121  0.00  0.00    +0.000 OA
ENDROOT
TORSDOF 0
REMARK  Name = ../refined-set-2016/2fmb/2fmb_pocket.pdb
REMARK  206 active torsions:
REMARK  status: ('A' for Active; 'I' for Inactive)
REMARK    1  A    between atoms: _1  and  _3
REMARK    2  A    between atoms: _3  and  _4
REMARK    3  A    between atoms: _3  and  _6
REMARK    4  A    between atoms: _6  and  _7
REMARK    5  A    between atoms: _7  and  _8
REMARK    6  A    between atoms: _8  and  _9
REMARK    7  A    between atoms: _18  and  _20
REMARK    8  A    between atoms: _20  and  _21
REMARK    9  A    between atoms: _20  and  _23
REMARK   10  A    between atoms: _23  and  _24
REMARK   11  A    between atoms: _27  and  _29
REMARK   12  A    between atoms: _29  and  _30
REMARK   13  A    between atoms: _29  and  _32
REMARK   14  A    between atoms: _32  and  _33
REMARK   15  A    between atoms: _36  and  _38
REMARK   16  A    between atoms: _38  and  _39
REMARK   17  A    between atoms: _38  and  _41
REMARK   18  A    between atoms: _41  and  _42
REMARK   19  A    between atoms: _45  and  _47
REMARK   20  A    between atoms: _47  and  _48
REMARK   21  A    between atoms: _47  and  _50
REMARK   22  A    between atoms: _50  and  _51
REMARK   23  A    between atoms: _54  and  _56
REMARK   24  A    between atoms: _56  and  _57
REMARK   25  A    between atoms: _59  and  _61
REMARK   26  A    between atoms: _61  and  _62
REMARK   27  A    between atoms: _65  and  _67
REMARK   28  A    between atoms: _67  and  _68
REMARK   29  A    between atoms: _67  and  _70
REMARK   30  A    between atoms: _70  and  _71
REMARK   31  A    between atoms: _74  and  _76
REMARK   32  A    between atoms: _76  and  _77
REMARK   33  A    between atoms: _76  and  _79
REMARK   34  A    between atoms: _79  and  _80
REMARK   35  A    between atoms: _83  and  _85
REMARK   36  A    between atoms: _85  and  _86
REMARK   37  A    between atoms: _85  and  _88
REMARK   38  A    between atoms: _88  and  _89
REMARK   39  A    between atoms: _91  and  _93
REMARK   40  A    between atoms: _93  and  _94
REMARK   41  A    between atoms: _93  and  _96
REMARK   42  A    between atoms: _99  and  _101
REMARK   43  A    between atoms: _101  and  _102
REMARK   44  A    between atoms: _101  and  _104
REMARK   45  A    between atoms: _104  and  _105
REMARK   46  A    between atoms: _108  and  _110
REMARK   47  A    between atoms: _110  and  _111
REMARK   48  A    between atoms: _113  and  _115
REMARK   49  A    between atoms: _115  and  _116
REMARK   50  A    between atoms: _115  and  _118
REMARK   51  A    between atoms: _118  and  _119
REMARK   52  A    between atoms: _122  and  _124
REMARK   53  A    between atoms: _124  and  _125
REMARK   54  A    between atoms: _127  and  _129
REMARK   55  A    between atoms: _129  and  _130
REMARK   56  A    between atoms: _132  and  _134
REMARK   57  A    between atoms: _134  and  _135
REMARK   58  A    between atoms: _134  and  _137
REMARK   59  A    between atoms: _140  and  _142
REMARK   60  A    between atoms: _142  and  _143
REMARK   61  A    between atoms: _145  and  _147
REMARK   62  A    between atoms: _147  and  _148
REMARK   63  A    between atoms: _150  and  _152
REMARK   64  A    between atoms: _152  and  _153
REMARK   65  A    between atoms: _152  and  _155
REMARK   66  A    between atoms: _155  and  _156
REMARK   67  A    between atoms: _161  and  _163
REMARK   68  A    between atoms: _163  and  _164
REMARK   69  A    between atoms: _163  and  _166
REMARK   70  A    between atoms: _169  and  _171
REMARK   71  A    between atoms: _171  and  _172
REMARK   72  A    between atoms: _171  and  _174
REMARK   73  A    between atoms: _174  and  _175
REMARK   74  A    between atoms: _178  and  _180
REMARK   75  A    between atoms: _180  and  _181
REMARK   76  A    between atoms: _180  and  _183
REMARK   77  A    between atoms: _183  and  _184
REMARK   78  A    between atoms: _188  and  _189
REMARK   79  A    between atoms: _194  and  _196
REMARK   80  A    between atoms: _196  and  _197
REMARK   81  A    between atoms: _196  and  _199
REMARK   82  A    between atoms: _202  and  _204
REMARK   83  A    between atoms: _204  and  _205
REMARK   84  A    between atoms: _204  and  _207
REMARK   85  A    between atoms: _207  and  _208
REMARK   86  A    between atoms: _211  and  _213
REMARK   87  A    between atoms: _213  and  _214
REMARK   88  A    between atoms: _213  and  _216
REMARK   89  A    between atoms: _216  and  _217
REMARK   90  A    between atoms: _220  and  _222
REMARK   91  A    between atoms: _222  and  _223
REMARK   92  A    between atoms: _222  and  _225
REMARK   93  A    between atoms: _225  and  _226
REMARK   94  A    between atoms: _229  and  _231
REMARK   95  A    between atoms: _231  and  _232
REMARK   96  A    between atoms: _234  and  _236
REMARK   97  A    between atoms: _236  and  _237
REMARK   98  A    between atoms: _236  and  _239
REMARK   99  A    between atoms: _239  and  _240
REMARK  100  A    between atoms: _240  and  _241
REMARK  101  A    between atoms: _241  and  _242
REMARK  102  A    between atoms: _251  and  _253
REMARK  103  A    between atoms: _253  and  _254
REMARK  104  A    between atoms: _253  and  _256
REMARK  105  A    between atoms: _256  and  _257
REMARK  106  A    between atoms: _257  and  _258
REMARK  107  A    between atoms: _258  and  _259
REMARK  108  A    between atoms: _268  and  _270
REMARK  109  A    between atoms: _270  and  _271
REMARK  110  A    between atoms: _270  and  _273
REMARK  111  A    between atoms: _273  and  _274
REMARK  112  A    between atoms: _277  and  _279
REMARK  113  A    between atoms: _279  and  _280
REMARK  114  A    between atoms: _279  and  _282
REMARK  115  A    between atoms: _282  and  _283
REMARK  116  A    between atoms: _286  and  _288
REMARK  117  A    between atoms: _288  and  _289
REMARK  118  A    between atoms: _288  and  _291
REMARK  119  A    between atoms: _291  and  _292
REMARK  120  A    between atoms: _295  and  _297
REMARK  121  A    between atoms: _297  and  _298
REMARK  122  A    between atoms: _297  and  _300
REMARK  123  A    between atoms: _300  and  _301
REMARK  124  A    between atoms: _304  and  _306
REMARK  125  A    between atoms: _306  and  _307
REMARK  126  A    between atoms: _306  and  _309
REMARK  127  A    between atoms: _309  and  _310
REMARK  128  A    between atoms: _313  and  _315
REMARK  129  A    between atoms: _315  and  _316
REMARK  130  A    between atoms: _318  and  _320
REMARK  131  A    between atoms: _320  and  _321
REMARK  132  A    between atoms: _324  and  _326
REMARK  133  A    between atoms: _326  and  _327
REMARK  134  A    between atoms: _326  and  _329
REMARK  135  A    between atoms: _329  and  _330
REMARK  136  A    between atoms: _333  and  _335
REMARK  137  A    between atoms: _335  and  _336
REMARK  138  A    between atoms: _335  and  _338
REMARK  139  A    between atoms: _338  and  _339
REMARK  140  A    between atoms: _342  and  _344
REMARK  141  A    between atoms: _344  and  _345
REMARK  142  A    between atoms: _344  and  _347
REMARK  143  A    between atoms: _347  and  _348
REMARK  144  A    between atoms: _350  and  _352
REMARK  145  A    between atoms: _352  and  _353
REMARK  146  A    between atoms: _352  and  _355
REMARK  147  A    between atoms: _358  and  _360
REMARK  148  A    between atoms: _360  and  _361
REMARK  149  A    between atoms: _360  and  _363
REMARK  150  A    between atoms: _363  and  _364
REMARK  151  A    between atoms: _367  and  _369
REMARK  152  A    between atoms: _369  and  _370
REMARK  153  A    between atoms: _372  and  _374
REMARK  154  A    between atoms: _374  and  _375
REMARK  155  A    between atoms: _374  and  _377
REMARK  156  A    between atoms: _377  and  _378
REMARK  157  A    between atoms: _381  and  _383
REMARK  158  A    between atoms: _383  and  _384
REMARK  159  A    between atoms: _386  and  _388
REMARK  160  A    between atoms: _388  and  _389
REMARK  161  A    between atoms: _391  and  _393
REMARK  162  A    between atoms: _393  and  _394
REMARK  163  A    between atoms: _393  and  _396
REMARK  164  A    between atoms: _399  and  _401
REMARK  165  A    between atoms: _401  and  _402
REMARK  166  A    between atoms: _404  and  _406
REMARK  167  A    between atoms: _406  and  _407
REMARK  168  A    between atoms: _409  and  _411
REMARK  169  A    between atoms: _411  and  _412
REMARK  170  A    between atoms: _411  and  _414
REMARK  171  A    between atoms: _414  and  _415
REMARK  172  A    between atoms: _420  and  _422
REMARK  173  A    between atoms: _422  and  _423
REMARK  174  A    between atoms: _422  and  _425
REMARK  175  A    between atoms: _428  and  _430
REMARK  176  A    between atoms: _430  and  _431
REMARK  177  A    between atoms: _430  and  _433
REMARK  178  A    between atoms: _433  and  _434
REMARK  179  A    between atoms: _437  and  _439
REMARK  180  A    between atoms: _439  and  _440
REMARK  181  A    between atoms: _439  and  _442
REMARK  182  A    between atoms: _442  and  _443
REMARK  183  A    between atoms: _446  and  _448
REMARK  184  A    between atoms: _448  and  _449
REMARK  185  A    between atoms: _448  and  _451
REMARK  186  A    between atoms: _451  and  _452
REMARK  187  A    between atoms: _456  and  _457
REMARK  188  A    between atoms: _462  and  _464
REMARK  189  A    between atoms: _464  and  _465
REMARK  190  A    between atoms: _464  and  _467
REMARK  191  A    between atoms: _470  and  _472
REMARK  192  A    between atoms: _472  and  _473
REMARK  193  A    between atoms: _472  and  _475
REMARK  194  A    between atoms: _475  and  _476
REMARK  195  A    between atoms: _479  and  _481
REMARK  196  A    between atoms: _481  and  _482
REMARK  197  A    between atoms: _481  and  _484
REMARK  198  A    between atoms: _484  and  _485
REMARK  199  A    between atoms: _488  and  _490
REMARK  200  A    between atoms: _490  and  _491
REMARK  201  A    between atoms: _493  and  _495
REMARK  202  A    between atoms: _495  and  _496
REMARK  203  A    between atoms: _495  and  _498
REMARK  204  A    between atoms: _498  and  _499
REMARK  205  A    between atoms: _499  and  _500
REMARK  206  A    between atoms: _500  and  _501
REMARK                            x       y       z     vdW  Elec       q    Type
REMARK                         _______ _______ _______ _____ _____    ______ ____
ROOT
ATOM      1  O   HOH     1      13.042  14.099  -0.034  0.00  0.00    +0.000 OA
ENDROOT
TORSDOF 0
REMARK  Name = ../refined-set-2016/2fmb/2fmb_pocket.pdb
REMARK  206 active torsions:
REMARK  status: ('A' for Active; 'I' for Inactive)
REMARK    1  A    between atoms: _1  and  _3
REMARK    2  A    between atoms: _3  and  _4
REMARK    3  A    between atoms: _3  and  _6
REMARK    4  A    between atoms: _6  and  _7
REMARK    5  A    between atoms: _7  and  _8
REMARK    6  A    between atoms: _8  and  _9
REMARK    7  A    between atoms: _18  and  _20
REMARK    8  A    between atoms: _20  and  _21
REMARK    9  A    between atoms: _20  and  _23
REMARK   10  A    between atoms: _23  and  _24
REMARK   11  A    between atoms: _27  and  _29
REMARK   12  A    between atoms: _29  and  _30
REMARK   13  A    between atoms: _29  and  _32
REMARK   14  A    between atoms: _32  and  _33
REMARK   15  A    between atoms: _36  and  _38
REMARK   16  A    between atoms: _38  and  _39
REMARK   17  A    between atoms: _38  and  _41
REMARK   18  A    between atoms: _41  and  _42
REMARK   19  A    between atoms: _45  and  _47
REMARK   20  A    between atoms: _47  and  _48
REMARK   21  A    between atoms: _47  and  _50
REMARK   22  A    between atoms: _50  and  _51
REMARK   23  A    between atoms: _54  and  _56
REMARK   24  A    between atoms: _56  and  _57
REMARK   25  A    between atoms: _59  and  _61
REMARK   26  A    between atoms: _61  and  _62
REMARK   27  A    between atoms: _65  and  _67
REMARK   28  A    between atoms: _67  and  _68
REMARK   29  A    between atoms: _67  and  _70
REMARK   30  A    between atoms: _70  and  _71
REMARK   31  A    between atoms: _74  and  _76
REMARK   32  A    between atoms: _76  and  _77
REMARK   33  A    between atoms: _76  and  _79
REMARK   34  A    between atoms: _79  and  _80
REMARK   35  A    between atoms: _83  and  _85
REMARK   36  A    between atoms: _85  and  _86
REMARK   37  A    between atoms: _85  and  _88
REMARK   38  A    between atoms: _88  and  _89
REMARK   39  A    between atoms: _91  and  _93
REMARK   40  A    between atoms: _93  and  _94
REMARK   41  A    between atoms: _93  and  _96
REMARK   42  A    between atoms: _99  and  _101
REMARK   43  A    between atoms: _101  and  _102
REMARK   44  A    between atoms: _101  and  _104
REMARK   45  A    between atoms: _104  and  _105
REMARK   46  A    between atoms: _108  and  _110
REMARK   47  A    between atoms: _110  and  _111
REMARK   48  A    between atoms: _113  and  _115
REMARK   49  A    between atoms: _115  and  _116
REMARK   50  A    between atoms: _115  and  _118
REMARK   51  A    between atoms: _118  and  _119
REMARK   52  A    between atoms: _122  and  _124
REMARK   53  A    between atoms: _124  and  _125
REMARK   54  A    between atoms: _127  and  _129
REMARK   55  A    between atoms: _129  and  _130
REMARK   56  A    between atoms: _132  and  _134
REMARK   57  A    between atoms: _134  and  _135
REMARK   58  A    between atoms: _134  and  _137
REMARK   59  A    between atoms: _140  and  _142
REMARK   60  A    between atoms: _142  and  _143
REMARK   61  A    between atoms: _145  and  _147
REMARK   62  A    between atoms: _147  and  _148
REMARK   63  A    between atoms: _150  and  _152
REMARK   64  A    between atoms: _152  and  _153
REMARK   65  A    between atoms: _152  and  _155
REMARK   66  A    between atoms: _155  and  _156
REMARK   67  A    between atoms: _161  and  _163
REMARK   68  A    between atoms: _163  and  _164
REMARK   69  A    between atoms: _163  and  _166
REMARK   70  A    between atoms: _169  and  _171
REMARK   71  A    between atoms: _171  and  _172
REMARK   72  A    between atoms: _171  and  _174
REMARK   73  A    between atoms: _174  and  _175
REMARK   74  A    between atoms: _178  and  _180
REMARK   75  A    between atoms: _180  and  _181
REMARK   76  A    between atoms: _180  and  _183
REMARK   77  A    between atoms: _183  and  _184
REMARK   78  A    between atoms: _188  and  _189
REMARK   79  A    between atoms: _194  and  _196
REMARK   80  A    between atoms: _196  and  _197
REMARK   81  A    between atoms: _196  and  _199
REMARK   82  A    between atoms: _202  and  _204
REMARK   83  A    between atoms: _204  and  _205
REMARK   84  A    between atoms: _204  and  _207
REMARK   85  A    between atoms: _207  and  _208
REMARK   86  A    between atoms: _211  and  _213
REMARK   87  A    between atoms: _213  and  _214
REMARK   88  A    between atoms: _213  and  _216
REMARK   89  A    between atoms: _216  and  _217
REMARK   90  A    between atoms: _220  and  _222
REMARK   91  A    between atoms: _222  and  _223
REMARK   92  A    between atoms: _222  and  _225
REMARK   93  A    between atoms: _225  and  _226
REMARK   94  A    between atoms: _229  and  _231
REMARK   95  A    between atoms: _231  and  _232
REMARK   96  A    between atoms: _234  and  _236
REMARK   97  A    between atoms: _236  and  _237
REMARK   98  A    between atoms: _236  and  _239
REMARK   99  A    between atoms: _239  and  _240
REMARK  100  A    between atoms: _240  and  _241
REMARK  101  A    between atoms: _241  and  _242
REMARK  102  A    between atoms: _251  and  _253
REMARK  103  A    between atoms: _253  and  _254
REMARK  104  A    between atoms: _253  and  _256
REMARK  105  A    between atoms: _256  and  _257
REMARK  106  A    between atoms: _257  and  _258
REMARK  107  A    between atoms: _258  and  _259
REMARK  108  A    between atoms: _268  and  _270
REMARK  109  A    between atoms: _270  and  _271
REMARK  110  A    between atoms: _270  and  _273
REMARK  111  A    between atoms: _273  and  _274
REMARK  112  A    between atoms: _277  and  _279
REMARK  113  A    between atoms: _279  and  _280
REMARK  114  A    between atoms: _279  and  _282
REMARK  115  A    between atoms: _282  and  _283
REMARK  116  A    between atoms: _286  and  _288
REMARK  117  A    between atoms: _288  and  _289
REMARK  118  A    between atoms: _288  and  _291
REMARK  119  A    between atoms: _291  and  _292
REMARK  120  A    between atoms: _295  and  _297
REMARK  121  A    between atoms: _297  and  _298
REMARK  122  A    between atoms: _297  and  _300
REMARK  123  A    between atoms: _300  and  _301
REMARK  124  A    between atoms: _304  and  _306
REMARK  125  A    between atoms: _306  and  _307
REMARK  126  A    between atoms: _306  and  _309
REMARK  127  A    between atoms: _309  and  _310
REMARK  128  A    between atoms: _313  and  _315
REMARK  129  A    between atoms: _315  and  _316
REMARK  130  A    between atoms: _318  and  _320
REMARK  131  A    between atoms: _320  and  _321
REMARK  132  A    between atoms: _324  and  _326
REMARK  133  A    between atoms: _326  and  _327
REMARK  134  A    between atoms: _326  and  _329
REMARK  135  A    between atoms: _329  and  _330
REMARK  136  A    between atoms: _333  and  _335
REMARK  137  A    between atoms: _335  and  _336
REMARK  138  A    between atoms: _335  and  _338
REMARK  139  A    between atoms: _338  and  _339
REMARK  140  A    between atoms: _342  and  _344
REMARK  141  A    between atoms: _344  and  _345
REMARK  142  A    between atoms: _344  and  _347
REMARK  143  A    between atoms: _347  and  _348
REMARK  144  A    between atoms: _350  and  _352
REMARK  145  A    between atoms: _352  and  _353
REMARK  146  A    between atoms: _352  and  _355
REMARK  147  A    between atoms: _358  and  _360
REMARK  148  A    between atoms: _360  and  _361
REMARK  149  A    between atoms: _360  and  _363
REMARK  150  A    between atoms: _363  and  _364
REMARK  151  A    between atoms: _367  and  _369
REMARK  152  A    between atoms: _369  and  _370
REMARK  153  A    between atoms: _372  and  _374
REMARK  154  A    between atoms: _374  and  _375
REMARK  155  A    between atoms: _374  and  _377
REMARK  156  A    between atoms: _377  and  _378
REMARK  157  A    between atoms: _381  and  _383
REMARK  158  A    between atoms: _383  and  _384
REMARK  159  A    between atoms: _386  and  _388
REMARK  160  A    between atoms: _388  and  _389
REMARK  161  A    between atoms: _391  and  _393
REMARK  162  A    between atoms: _393  and  _394
REMARK  163  A    between atoms: _393  and  _396
REMARK  164  A    between atoms: _399  and  _401
REMARK  165  A    between atoms: _401  and  _402
REMARK  166  A    between atoms: _404  and  _406
REMARK  167  A    between atoms: _406  and  _407
REMARK  168  A    between atoms: _409  and  _411
REMARK  169  A    between atoms: _411  and  _412
REMARK  170  A    between atoms: _411  and  _414
REMARK  171  A    between atoms: _414  and  _415
REMARK  172  A    between atoms: _420  and  _422
REMARK  173  A    between atoms: _422  and  _423
REMARK  174  A    between atoms: _422  and  _425
REMARK  175  A    between atoms: _428  and  _430
REMARK  176  A    between atoms: _430  and  _431
REMARK  177  A    between atoms: _430  and  _433
REMARK  178  A    between atoms: _433  and  _434
REMARK  179  A    between atoms: _437  and  _439
REMARK  180  A    between atoms: _439  and  _440
REMARK  181  A    between atoms: _439  and  _442
REMARK  182  A    between atoms: _442  and  _443
REMARK  183  A    between atoms: _446  and  _448
REMARK  184  A    between atoms: _448  and  _449
REMARK  185  A    between atoms: _448  and  _451
REMARK  186  A    between atoms: _451  and  _452
REMARK  187  A    between atoms: _456  and  _457
REMARK  188  A    between atoms: _462  and  _464
REMARK  189  A    between atoms: _464  and  _465
REMARK  190  A    between atoms: _464  and  _467
REMARK  191  A    between atoms: _470  and  _472
REMARK  192  A    between atoms: _472  and  _473
REMARK  193  A    between atoms: _472  and  _475
REMARK  194  A    between atoms: _475  and  _476
REMARK  195  A    between atoms: _479  and  _481
REMARK  196  A    between atoms: _481  and  _482
REMARK  197  A    between atoms: _481  and  _484
REMARK  198  A    between atoms: _484  and  _485
REMARK  199  A    between atoms: _488  and  _490
REMARK  200  A    between atoms: _490  and  _491
REMARK  201  A    between atoms: _493  and  _495
REMARK  202  A    between atoms: _495  and  _496
REMARK  203  A    between atoms: _495  and  _498
REMARK  204  A    between atoms: _498  and  _499
REMARK  205  A    between atoms: _499  and  _500
REMARK  206  A    between atoms: _500  and  _501
REMARK                            x       y       z     vdW  Elec       q    Type
REMARK                         _______ _______ _______ _____ _____    ______ ____
ROOT
ATOM      1  O   HOH     1      -9.844  14.385  -8.496  0.00  0.00    +0.000 OA
ENDROOT
TORSDOF 0
REMARK  Name = ../refined-set-2016/2fmb/2fmb_pocket.pdb
REMARK  206 active torsions:
REMARK  status: ('A' for Active; 'I' for Inactive)
REMARK    1  A    between atoms: _1  and  _3
REMARK    2  A    between atoms: _3  and  _4
REMARK    3  A    between atoms: _3  and  _6
REMARK    4  A    between atoms: _6  and  _7
REMARK    5  A    between atoms: _7  and  _8
REMARK    6  A    between atoms: _8  and  _9
REMARK    7  A    between atoms: _18  and  _20
REMARK    8  A    between atoms: _20  and  _21
REMARK    9  A    between atoms: _20  and  _23
REMARK   10  A    between atoms: _23  and  _24
REMARK   11  A    between atoms: _27  and  _29
REMARK   12  A    between atoms: _29  and  _30
REMARK   13  A    between atoms: _29  and  _32
REMARK   14  A    between atoms: _32  and  _33
REMARK   15  A    between atoms: _36  and  _38
REMARK   16  A    between atoms: _38  and  _39
REMARK   17  A    between atoms: _38  and  _41
REMARK   18  A    between atoms: _41  and  _42
REMARK   19  A    between atoms: _45  and  _47
REMARK   20  A    between atoms: _47  and  _48
REMARK   21  A    between atoms: _47  and  _50
REMARK   22  A    between atoms: _50  and  _51
REMARK   23  A    between atoms: _54  and  _56
REMARK   24  A    between atoms: _56  and  _57
REMARK   25  A    between atoms: _59  and  _61
REMARK   26  A    between atoms: _61  and  _62
REMARK   27  A    between atoms: _65  and  _67
REMARK   28  A    between atoms: _67  and  _68
REMARK   29  A    between atoms: _67  and  _70
REMARK   30  A    between atoms: _70  and  _71
REMARK   31  A    between atoms: _74  and  _76
REMARK   32  A    between atoms: _76  and  _77
REMARK   33  A    between atoms: _76  and  _79
REMARK   34  A    between atoms: _79  and  _80
REMARK   35  A    between atoms: _83  and  _85
REMARK   36  A    between atoms: _85  and  _86
REMARK   37  A    between atoms: _85  and  _88
REMARK   38  A    between atoms: _88  and  _89
REMARK   39  A    between atoms: _91  and  _93
REMARK   40  A    between atoms: _93  and  _94
REMARK   41  A    between atoms: _93  and  _96
REMARK   42  A    between atoms: _99  and  _101
REMARK   43  A    between atoms: _101  and  _102
REMARK   44  A    between atoms: _101  and  _104
REMARK   45  A    between atoms: _104  and  _105
REMARK   46  A    between atoms: _108  and  _110
REMARK   47  A    between atoms: _110  and  _111
REMARK   48  A    between atoms: _113  and  _115
REMARK   49  A    between atoms: _115  and  _116
REMARK   50  A    between atoms: _115  and  _118
REMARK   51  A    between atoms: _118  and  _119
REMARK   52  A    between atoms: _122  and  _124
REMARK   53  A    between atoms: _124  and  _125
REMARK   54  A    between atoms: _127  and  _129
REMARK   55  A    between atoms: _129  and  _130
REMARK   56  A    between atoms: _132  and  _134
REMARK   57  A    between atoms: _134  and  _135
REMARK   58  A    between atoms: _134  and  _137
REMARK   59  A    between atoms: _140  and  _142
REMARK   60  A    between atoms: _142  and  _143
REMARK   61  A    between atoms: _145  and  _147
REMARK   62  A    between atoms: _147  and  _148
REMARK   63  A    between atoms: _150  and  _152
REMARK   64  A    between atoms: _152  and  _153
REMARK   65  A    between atoms: _152  and  _155
REMARK   66  A    between atoms: _155  and  _156
REMARK   67  A    between atoms: _161  and  _163
REMARK   68  A    between atoms: _163  and  _164
REMARK   69  A    between atoms: _163  and  _166
REMARK   70  A    between atoms: _169  and  _171
REMARK   71  A    between atoms: _171  and  _172
REMARK   72  A    between atoms: _171  and  _174
REMARK   73  A    between atoms: _174  and  _175
REMARK   74  A    between atoms: _178  and  _180
REMARK   75  A    between atoms: _180  and  _181
REMARK   76  A    between atoms: _180  and  _183
REMARK   77  A    between atoms: _183  and  _184
REMARK   78  A    between atoms: _188  and  _189
REMARK   79  A    between atoms: _194  and  _196
REMARK   80  A    between atoms: _196  and  _197
REMARK   81  A    between atoms: _196  and  _199
REMARK   82  A    between atoms: _202  and  _204
REMARK   83  A    between atoms: _204  and  _205
REMARK   84  A    between atoms: _204  and  _207
REMARK   85  A    between atoms: _207  and  _208
REMARK   86  A    between atoms: _211  and  _213
REMARK   87  A    between atoms: _213  and  _214
REMARK   88  A    between atoms: _213  and  _216
REMARK   89  A    between atoms: _216  and  _217
REMARK   90  A    between atoms: _220  and  _222
REMARK   91  A    between atoms: _222  and  _223
REMARK   92  A    between atoms: _222  and  _225
REMARK   93  A    between atoms: _225  and  _226
REMARK   94  A    between atoms: _229  and  _231
REMARK   95  A    between atoms: _231  and  _232
REMARK   96  A    between atoms: _234  and  _236
REMARK   97  A    between atoms: _236  and  _237
REMARK   98  A    between atoms: _236  and  _239
REMARK   99  A    between atoms: _239  and  _240
REMARK  100  A    between atoms: _240  and  _241
REMARK  101  A    between atoms: _241  and  _242
REMARK  102  A    between atoms: _251  and  _253
REMARK  103  A    between atoms: _253  and  _254
REMARK  104  A    between atoms: _253  and  _256
REMARK  105  A    between atoms: _256  and  _257
REMARK  106  A    between atoms: _257  and  _258
REMARK  107  A    between atoms: _258  and  _259
REMARK  108  A    between atoms: _268  and  _270
REMARK  109  A    between atoms: _270  and  _271
REMARK  110  A    between atoms: _270  and  _273
REMARK  111  A    between atoms: _273  and  _274
REMARK  112  A    between atoms: _277  and  _279
REMARK  113  A    between atoms: _279  and  _280
REMARK  114  A    between atoms: _279  and  _282
REMARK  115  A    between atoms: _282  and  _283
REMARK  116  A    between atoms: _286  and  _288
REMARK  117  A    between atoms: _288  and  _289
REMARK  118  A    between atoms: _288  and  _291
REMARK  119  A    between atoms: _291  and  _292
REMARK  120  A    between atoms: _295  and  _297
REMARK  121  A    between atoms: _297  and  _298
REMARK  122  A    between atoms: _297  and  _300
REMARK  123  A    between atoms: _300  and  _301
REMARK  124  A    between atoms: _304  and  _306
REMARK  125  A    between atoms: _306  and  _307
REMARK  126  A    between atoms: _306  and  _309
REMARK  127  A    between atoms: _309  and  _310
REMARK  128  A    between atoms: _313  and  _315
REMARK  129  A    between atoms: _315  and  _316
REMARK  130  A    between atoms: _318  and  _320
REMARK  131  A    between atoms: _320  and  _321
REMARK  132  A    between atoms: _324  and  _326
REMARK  133  A    between atoms: _326  and  _327
REMARK  134  A    between atoms: _326  and  _329
REMARK  135  A    between atoms: _329  and  _330
REMARK  136  A    between atoms: _333  and  _335
REMARK  137  A    between atoms: _335  and  _336
REMARK  138  A    between atoms: _335  and  _338
REMARK  139  A    between atoms: _338  and  _339
REMARK  140  A    between atoms: _342  and  _344
REMARK  141  A    between atoms: _344  and  _345
REMARK  142  A    between atoms: _344  and  _347
REMARK  143  A    between atoms: _347  and  _348
REMARK  144  A    between atoms: _350  and  _352
REMARK  145  A    between atoms: _352  and  _353
REMARK  146  A    between atoms: _352  and  _355
REMARK  147  A    between atoms: _358  and  _360
REMARK  148  A    between atoms: _360  and  _361
REMARK  149  A    between atoms: _360  and  _363
REMARK  150  A    between atoms: _363  and  _364
REMARK  151  A    between atoms: _367  and  _369
REMARK  152  A    between atoms: _369  and  _370
REMARK  153  A    between atoms: _372  and  _374
REMARK  154  A    between atoms: _374  and  _375
REMARK  155  A    between atoms: _374  and  _377
REMARK  156  A    between atoms: _377  and  _378
REMARK  157  A    between atoms: _381  and  _383
REMARK  158  A    between atoms: _383  and  _384
REMARK  159  A    between atoms: _386  and  _388
REMARK  160  A    between atoms: _388  and  _389
REMARK  161  A    between atoms: _391  and  _393
REMARK  162  A    between atoms: _393  and  _394
REMARK  163  A    between atoms: _393  and  _396
REMARK  164  A    between atoms: _399  and  _401
REMARK  165  A    between atoms: _401  and  _402
REMARK  166  A    between atoms: _404  and  _406
REMARK  167  A    between atoms: _406  and  _407
REMARK  168  A    between atoms: _409  and  _411
REMARK  169  A    between atoms: _411  and  _412
REMARK  170  A    between atoms: _411  and  _414
REMARK  171  A    between atoms: _414  and  _415
REMARK  172  A    between atoms: _420  and  _422
REMARK  173  A    between atoms: _422  and  _423
REMARK  174  A    between atoms: _422  and  _425
REMARK  175  A    between atoms: _428  and  _430
REMARK  176  A    between atoms: _430  and  _431
REMARK  177  A    between atoms: _430  and  _433
REMARK  178  A    between atoms: _433  and  _434
REMARK  179  A    between atoms: _437  and  _439
REMARK  180  A    between atoms: _439  and  _440
REMARK  181  A    between atoms: _439  and  _442
REMARK  182  A    between atoms: _442  and  _443
REMARK  183  A    between atoms: _446  and  _448
REMARK  184  A    between atoms: _448  and  _449
REMARK  185  A    between atoms: _448  and  _451
REMARK  186  A    between atoms: _451  and  _452
REMARK  187  A    between atoms: _456  and  _457
REMARK  188  A    between atoms: _462  and  _464
REMARK  189  A    between atoms: _464  and  _465
REMARK  190  A    between atoms: _464  and  _467
REMARK  191  A    between atoms: _470  and  _472
REMARK  192  A    between atoms: _472  and  _473
REMARK  193  A    between atoms: _472  and  _475
REMARK  194  A    between atoms: _475  and  _476
REMARK  195  A    between atoms: _479  and  _481
REMARK  196  A    between atoms: _481  and  _482
REMARK  197  A    between atoms: _481  and  _484
REMARK  198  A    between atoms: _484  and  _485
REMARK  199  A    between atoms: _488  and  _490
REMARK  200  A    between atoms: _490  and  _491
REMARK  201  A    between atoms: _493  and  _495
REMARK  202  A    between atoms: _495  and  _496
REMARK  203  A    between atoms: _495  and  _498
REMARK  204  A    between atoms: _498  and  _499
REMARK  205  A    between atoms: _499  and  _500
REMARK  206  A    between atoms: _500  and  _501
REMARK                            x       y       z     vdW  Elec       q    Type
REMARK                         _______ _______ _______ _____ _____    ______ ____
ROOT
ATOM      1  O   HOH     1      11.158  23.820  -2.964  0.00  0.00    +0.000 OA
ENDROOT
TORSDOF 0
REMARK  Name = ../refined-set-2016/2fmb/2fmb_pocket.pdb
REMARK  206 active torsions:
REMARK  status: ('A' for Active; 'I' for Inactive)
REMARK    1  A    between atoms: _1  and  _3
REMARK    2  A    between atoms: _3  and  _4
REMARK    3  A    between atoms: _3  and  _6
REMARK    4  A    between atoms: _6  and  _7
REMARK    5  A    between atoms: _7  and  _8
REMARK    6  A    between atoms: _8  and  _9
REMARK    7  A    between atoms: _18  and  _20
REMARK    8  A    between atoms: _20  and  _21
REMARK    9  A    between atoms: _20  and  _23
REMARK   10  A    between atoms: _23  and  _24
REMARK   11  A    between atoms: _27  and  _29
REMARK   12  A    between atoms: _29  and  _30
REMARK   13  A    between atoms: _29  and  _32
REMARK   14  A    between atoms: _32  and  _33
REMARK   15  A    between atoms: _36  and  _38
REMARK   16  A    between atoms: _38  and  _39
REMARK   17  A    between atoms: _38  and  _41
REMARK   18  A    between atoms: _41  and  _42
REMARK   19  A    between atoms: _45  and  _47
REMARK   20  A    between atoms: _47  and  _48
REMARK   21  A    between atoms: _47  and  _50
REMARK   22  A    between atoms: _50  and  _51
REMARK   23  A    between atoms: _54  and  _56
REMARK   24  A    between atoms: _56  and  _57
REMARK   25  A    between atoms: _59  and  _61
REMARK   26  A    between atoms: _61  and  _62
REMARK   27  A    between atoms: _65  and  _67
REMARK   28  A    between atoms: _67  and  _68
REMARK   29  A    between atoms: _67  and  _70
REMARK   30  A    between atoms: _70  and  _71
REMARK   31  A    between atoms: _74  and  _76
REMARK   32  A    between atoms: _76  and  _77
REMARK   33  A    between atoms: _76  and  _79
REMARK   34  A    between atoms: _79  and  _80
REMARK   35  A    between atoms: _83  and  _85
REMARK   36  A    between atoms: _85  and  _86
REMARK   37  A    between atoms: _85  and  _88
REMARK   38  A    between atoms: _88  and  _89
REMARK   39  A    between atoms: _91  and  _93
REMARK   40  A    between atoms: _93  and  _94
REMARK   41  A    between atoms: _93  and  _96
REMARK   42  A    between atoms: _99  and  _101
REMARK   43  A    between atoms: _101  and  _102
REMARK   44  A    between atoms: _101  and  _104
REMARK   45  A    between atoms: _104  and  _105
REMARK   46  A    between atoms: _108  and  _110
REMARK   47  A    between atoms: _110  and  _111
REMARK   48  A    between atoms: _113  and  _115
REMARK   49  A    between atoms: _115  and  _116
REMARK   50  A    between atoms: _115  and  _118
REMARK   51  A    between atoms: _118  and  _119
REMARK   52  A    between atoms: _122  and  _124
REMARK   53  A    between atoms: _124  and  _125
REMARK   54  A    between atoms: _127  and  _129
REMARK   55  A    between atoms: _129  and  _130
REMARK   56  A    between atoms: _132  and  _134
REMARK   57  A    between atoms: _134  and  _135
REMARK   58  A    between atoms: _134  and  _137
REMARK   59  A    between atoms: _140  and  _142
REMARK   60  A    between atoms: _142  and  _143
REMARK   61  A    between atoms: _145  and  _147
REMARK   62  A    between atoms: _147  and  _148
REMARK   63  A    between atoms: _150  and  _152
REMARK   64  A    between atoms: _152  and  _153
REMARK   65  A    between atoms: _152  and  _155
REMARK   66  A    between atoms: _155  and  _156
REMARK   67  A    between atoms: _161  and  _163
REMARK   68  A    between atoms: _163  and  _164
REMARK   69  A    between atoms: _163  and  _166
REMARK   70  A    between atoms: _169  and  _171
REMARK   71  A    between atoms: _171  and  _172
REMARK   72  A    between atoms: _171  and  _174
REMARK   73  A    between atoms: _174  and  _175
REMARK   74  A    between atoms: _178  and  _180
REMARK   75  A    between atoms: _180  and  _181
REMARK   76  A    between atoms: _180  and  _183
REMARK   77  A    between atoms: _183  and  _184
REMARK   78  A    between atoms: _188  and  _189
REMARK   79  A    between atoms: _194  and  _196
REMARK   80  A    between atoms: _196  and  _197
REMARK   81  A    between atoms: _196  and  _199
REMARK   82  A    between atoms: _202  and  _204
REMARK   83  A    between atoms: _204  and  _205
REMARK   84  A    between atoms: _204  and  _207
REMARK   85  A    between atoms: _207  and  _208
REMARK   86  A    between atoms: _211  and  _213
REMARK   87  A    between atoms: _213  and  _214
REMARK   88  A    between atoms: _213  and  _216
REMARK   89  A    between atoms: _216  and  _217
REMARK   90  A    between atoms: _220  and  _222
REMARK   91  A    between atoms: _222  and  _223
REMARK   92  A    between atoms: _222  and  _225
REMARK   93  A    between atoms: _225  and  _226
REMARK   94  A    between atoms: _229  and  _231
REMARK   95  A    between atoms: _231  and  _232
REMARK   96  A    between atoms: _234  and  _236
REMARK   97  A    between atoms: _236  and  _237
REMARK   98  A    between atoms: _236  and  _239
REMARK   99  A    between atoms: _239  and  _240
REMARK  100  A    between atoms: _240  and  _241
REMARK  101  A    between atoms: _241  and  _242
REMARK  102  A    between atoms: _251  and  _253
REMARK  103  A    between atoms: _253  and  _254
REMARK  104  A    between atoms: _253  and  _256
REMARK  105  A    between atoms: _256  and  _257
REMARK  106  A    between atoms: _257  and  _258
REMARK  107  A    between atoms: _258  and  _259
REMARK  108  A    between atoms: _268  and  _270
REMARK  109  A    between atoms: _270  and  _271
REMARK  110  A    between atoms: _270  and  _273
REMARK  111  A    between atoms: _273  and  _274
REMARK  112  A    between atoms: _277  and  _279
REMARK  113  A    between atoms: _279  and  _280
REMARK  114  A    between atoms: _279  and  _282
REMARK  115  A    between atoms: _282  and  _283
REMARK  116  A    between atoms: _286  and  _288
REMARK  117  A    between atoms: _288  and  _289
REMARK  118  A    between atoms: _288  and  _291
REMARK  119  A    between atoms: _291  and  _292
REMARK  120  A    between atoms: _295  and  _297
REMARK  121  A    between atoms: _297  and  _298
REMARK  122  A    between atoms: _297  and  _300
REMARK  123  A    between atoms: _300  and  _301
REMARK  124  A    between atoms: _304  and  _306
REMARK  125  A    between atoms: _306  and  _307
REMARK  126  A    between atoms: _306  and  _309
REMARK  127  A    between atoms: _309  and  _310
REMARK  128  A    between atoms: _313  and  _315
REMARK  129  A    between atoms: _315  and  _316
REMARK  130  A    between atoms: _318  and  _320
REMARK  131  A    between atoms: _320  and  _321
REMARK  132  A    between atoms: _324  and  _326
REMARK  133  A    between atoms: _326  and  _327
REMARK  134  A    between atoms: _326  and  _329
REMARK  135  A    between atoms: _329  and  _330
REMARK  136  A    between atoms: _333  and  _335
REMARK  137  A    between atoms: _335  and  _336
REMARK  138  A    between atoms: _335  and  _338
REMARK  139  A    between atoms: _338  and  _339
REMARK  140  A    between atoms: _342  and  _344
REMARK  141  A    between atoms: _344  and  _345
REMARK  142  A    between atoms: _344  and  _347
REMARK  143  A    between atoms: _347  and  _348
REMARK  144  A    between atoms: _350  and  _352
REMARK  145  A    between atoms: _352  and  _353
REMARK  146  A    between atoms: _352  and  _355
REMARK  147  A    between atoms: _358  and  _360
REMARK  148  A    between atoms: _360  and  _361
REMARK  149  A    between atoms: _360  and  _363
REMARK  150  A    between atoms: _363  and  _364
REMARK  151  A    between atoms: _367  and  _369
REMARK  152  A    between atoms: _369  and  _370
REMARK  153  A    between atoms: _372  and  _374
REMARK  154  A    between atoms: _374  and  _375
REMARK  155  A    between atoms: _374  and  _377
REMARK  156  A    between atoms: _377  and  _378
REMARK  157  A    between atoms: _381  and  _383
REMARK  158  A    between atoms: _383  and  _384
REMARK  159  A    between atoms: _386  and  _388
REMARK  160  A    between atoms: _388  and  _389
REMARK  161  A    between atoms: _391  and  _393
REMARK  162  A    between atoms: _393  and  _394
REMARK  163  A    between atoms: _393  and  _396
REMARK  164  A    between atoms: _399  and  _401
REMARK  165  A    between atoms: _401  and  _402
REMARK  166  A    between atoms: _404  and  _406
REMARK  167  A    between atoms: _406  and  _407
REMARK  168  A    between atoms: _409  and  _411
REMARK  169  A    between atoms: _411  and  _412
REMARK  170  A    between atoms: _411  and  _414
REMARK  171  A    between atoms: _414  and  _415
REMARK  172  A    between atoms: _420  and  _422
REMARK  173  A    between atoms: _422  and  _423
REMARK  174  A    between atoms: _422  and  _425
REMARK  175  A    between atoms: _428  and  _430
REMARK  176  A    between atoms: _430  and  _431
REMARK  177  A    between atoms: _430  and  _433
REMARK  178  A    between atoms: _433  and  _434
REMARK  179  A    between atoms: _437  and  _439
REMARK  180  A    between atoms: _439  and  _440
REMARK  181  A    between atoms: _439  and  _442
REMARK  182  A    between atoms: _442  and  _443
REMARK  183  A    between atoms: _446  and  _448
REMARK  184  A    between atoms: _448  and  _449
REMARK  185  A    between atoms: _448  and  _451
REMARK  186  A    between atoms: _451  and  _452
REMARK  187  A    between atoms: _456  and  _457
REMARK  188  A    between atoms: _462  and  _464
REMARK  189  A    between atoms: _464  and  _465
REMARK  190  A    between atoms: _464  and  _467
REMARK  191  A    between atoms: _470  and  _472
REMARK  192  A    between atoms: _472  and  _473
REMARK  193  A    between atoms: _472  and  _475
REMARK  194  A    between atoms: _475  and  _476
REMARK  195  A    between atoms: _479  and  _481
REMARK  196  A    between atoms: _481  and  _482
REMARK  197  A    between atoms: _481  and  _484
REMARK  198  A    between atoms: _484  and  _485
REMARK  199  A    between atoms: _488  and  _490
REMARK  200  A    between atoms: _490  and  _491
REMARK  201  A    between atoms: _493  and  _495
REMARK  202  A    between atoms: _495  and  _496
REMARK  203  A    between atoms: _495  and  _498
REMARK  204  A    between atoms: _498  and  _499
REMARK  205  A    between atoms: _499  and  _500
REMARK  206  A    between atoms: _500  and  _501
REMARK                            x       y       z     vdW  Elec       q    Type
REMARK                         _______ _______ _______ _____ _____    ______ ____
ROOT
ATOM      1  O   HOH     1      -5.877  26.586   0.372  0.00  0.00    +0.000 OA
ENDROOT
TORSDOF 0
REMARK  Name = ../refined-set-2016/2fmb/2fmb_pocket.pdb
REMARK  206 active torsions:
REMARK  status: ('A' for Active; 'I' for Inactive)
REMARK    1  A    between atoms: _1  and  _3
REMARK    2  A    between atoms: _3  and  _4
REMARK    3  A    between atoms: _3  and  _6
REMARK    4  A    between atoms: _6  and  _7
REMARK    5  A    between atoms: _7  and  _8
REMARK    6  A    between atoms: _8  and  _9
REMARK    7  A    between atoms: _18  and  _20
REMARK    8  A    between atoms: _20  and  _21
REMARK    9  A    between atoms: _20  and  _23
REMARK   10  A    between atoms: _23  and  _24
REMARK   11  A    between atoms: _27  and  _29
REMARK   12  A    between atoms: _29  and  _30
REMARK   13  A    between atoms: _29  and  _32
REMARK   14  A    between atoms: _32  and  _33
REMARK   15  A    between atoms: _36  and  _38
REMARK   16  A    between atoms: _38  and  _39
REMARK   17  A    between atoms: _38  and  _41
REMARK   18  A    between atoms: _41  and  _42
REMARK   19  A    between atoms: _45  and  _47
REMARK   20  A    between atoms: _47  and  _48
REMARK   21  A    between atoms: _47  and  _50
REMARK   22  A    between atoms: _50  and  _51
REMARK   23  A    between atoms: _54  and  _56
REMARK   24  A    between atoms: _56  and  _57
REMARK   25  A    between atoms: _59  and  _61
REMARK   26  A    between atoms: _61  and  _62
REMARK   27  A    between atoms: _65  and  _67
REMARK   28  A    between atoms: _67  and  _68
REMARK   29  A    between atoms: _67  and  _70
REMARK   30  A    between atoms: _70  and  _71
REMARK   31  A    between atoms: _74  and  _76
REMARK   32  A    between atoms: _76  and  _77
REMARK   33  A    between atoms: _76  and  _79
REMARK   34  A    between atoms: _79  and  _80
REMARK   35  A    between atoms: _83  and  _85
REMARK   36  A    between atoms: _85  and  _86
REMARK   37  A    between atoms: _85  and  _88
REMARK   38  A    between atoms: _88  and  _89
REMARK   39  A    between atoms: _91  and  _93
REMARK   40  A    between atoms: _93  and  _94
REMARK   41  A    between atoms: _93  and  _96
REMARK   42  A    between atoms: _99  and  _101
REMARK   43  A    between atoms: _101  and  _102
REMARK   44  A    between atoms: _101  and  _104
REMARK   45  A    between atoms: _104  and  _105
REMARK   46  A    between atoms: _108  and  _110
REMARK   47  A    between atoms: _110  and  _111
REMARK   48  A    between atoms: _113  and  _115
REMARK   49  A    between atoms: _115  and  _116
REMARK   50  A    between atoms: _115  and  _118
REMARK   51  A    between atoms: _118  and  _119
REMARK   52  A    between atoms: _122  and  _124
REMARK   53  A    between atoms: _124  and  _125
REMARK   54  A    between atoms: _127  and  _129
REMARK   55  A    between atoms: _129  and  _130
REMARK   56  A    between atoms: _132  and  _134
REMARK   57  A    between atoms: _134  and  _135
REMARK   58  A    between atoms: _134  and  _137
REMARK   59  A    between atoms: _140  and  _142
REMARK   60  A    between atoms: _142  and  _143
REMARK   61  A    between atoms: _145  and  _147
REMARK   62  A    between atoms: _147  and  _148
REMARK   63  A    between atoms: _150  and  _152
REMARK   64  A    between atoms: _152  and  _153
REMARK   65  A    between atoms: _152  and  _155
REMARK   66  A    between atoms: _155  and  _156
REMARK   67  A    between atoms: _161  and  _163
REMARK   68  A    between atoms: _163  and  _164
REMARK   69  A    between atoms: _163  and  _166
REMARK   70  A    between atoms: _169  and  _171
REMARK   71  A    between atoms: _171  and  _172
REMARK   72  A    between atoms: _171  and  _174
REMARK   73  A    between atoms: _174  and  _175
REMARK   74  A    between atoms: _178  and  _180
REMARK   75  A    between atoms: _180  and  _181
REMARK   76  A    between atoms: _180  and  _183
REMARK   77  A    between atoms: _183  and  _184
REMARK   78  A    between atoms: _188  and  _189
REMARK   79  A    between atoms: _194  and  _196
REMARK   80  A    between atoms: _196  and  _197
REMARK   81  A    between atoms: _196  and  _199
REMARK   82  A    between atoms: _202  and  _204
REMARK   83  A    between atoms: _204  and  _205
REMARK   84  A    between atoms: _204  and  _207
REMARK   85  A    between atoms: _207  and  _208
REMARK   86  A    between atoms: _211  and  _213
REMARK   87  A    between atoms: _213  and  _214
REMARK   88  A    between atoms: _213  and  _216
REMARK   89  A    between atoms: _216  and  _217
REMARK   90  A    between atoms: _220  and  _222
REMARK   91  A    between atoms: _222  and  _223
REMARK   92  A    between atoms: _222  and  _225
REMARK   93  A    between atoms: _225  and  _226
REMARK   94  A    between atoms: _229  and  _231
REMARK   95  A    between atoms: _231  and  _232
REMARK   96  A    between atoms: _234  and  _236
REMARK   97  A    between atoms: _236  and  _237
REMARK   98  A    between atoms: _236  and  _239
REMARK   99  A    between atoms: _239  and  _240
REMARK  100  A    between atoms: _240  and  _241
REMARK  101  A    between atoms: _241  and  _242
REMARK  102  A    between atoms: _251  and  _253
REMARK  103  A    between atoms: _253  and  _254
REMARK  104  A    between atoms: _253  and  _256
REMARK  105  A    between atoms: _256  and  _257
REMARK  106  A    between atoms: _257  and  _258
REMARK  107  A    between atoms: _258  and  _259
REMARK  108  A    between atoms: _268  and  _270
REMARK  109  A    between atoms: _270  and  _271
REMARK  110  A    between atoms: _270  and  _273
REMARK  111  A    between atoms: _273  and  _274
REMARK  112  A    between atoms: _277  and  _279
REMARK  113  A    between atoms: _279  and  _280
REMARK  114  A    between atoms: _279  and  _282
REMARK  115  A    between atoms: _282  and  _283
REMARK  116  A    between atoms: _286  and  _288
REMARK  117  A    between atoms: _288  and  _289
REMARK  118  A    between atoms: _288  and  _291
REMARK  119  A    between atoms: _291  and  _292
REMARK  120  A    between atoms: _295  and  _297
REMARK  121  A    between atoms: _297  and  _298
REMARK  122  A    between atoms: _297  and  _300
REMARK  123  A    between atoms: _300  and  _301
REMARK  124  A    between atoms: _304  and  _306
REMARK  125  A    between atoms: _306  and  _307
REMARK  126  A    between atoms: _306  and  _309
REMARK  127  A    between atoms: _309  and  _310
REMARK  128  A    between atoms: _313  and  _315
REMARK  129  A    between atoms: _315  and  _316
REMARK  130  A    between atoms: _318  and  _320
REMARK  131  A    between atoms: _320  and  _321
REMARK  132  A    between atoms: _324  and  _326
REMARK  133  A    between atoms: _326  and  _327
REMARK  134  A    between atoms: _326  and  _329
REMARK  135  A    between atoms: _329  and  _330
REMARK  136  A    between atoms: _333  and  _335
REMARK  137  A    between atoms: _335  and  _336
REMARK  138  A    between atoms: _335  and  _338
REMARK  139  A    between atoms: _338  and  _339
REMARK  140  A    between atoms: _342  and  _344
REMARK  141  A    between atoms: _344  and  _345
REMARK  142  A    between atoms: _344  and  _347
REMARK  143  A    between atoms: _347  and  _348
REMARK  144  A    between atoms: _350  and  _352
REMARK  145  A    between atoms: _352  and  _353
REMARK  146  A    between atoms: _352  and  _355
REMARK  147  A    between atoms: _358  and  _360
REMARK  148  A    between atoms: _360  and  _361
REMARK  149  A    between atoms: _360  and  _363
REMARK  150  A    between atoms: _363  and  _364
REMARK  151  A    between atoms: _367  and  _369
REMARK  152  A    between atoms: _369  and  _370
REMARK  153  A    between atoms: _372  and  _374
REMARK  154  A    between atoms: _374  and  _375
REMARK  155  A    between atoms: _374  and  _377
REMARK  156  A    between atoms: _377  and  _378
REMARK  157  A    between atoms: _381  and  _383
REMARK  158  A    between atoms: _383  and  _384
REMARK  159  A    between atoms: _386  and  _388
REMARK  160  A    between atoms: _388  and  _389
REMARK  161  A    between atoms: _391  and  _393
REMARK  162  A    between atoms: _393  and  _394
REMARK  163  A    between atoms: _393  and  _396
REMARK  164  A    between atoms: _399  and  _401
REMARK  165  A    between atoms: _401  and  _402
REMARK  166  A    between atoms: _404  and  _406
REMARK  167  A    between atoms: _406  and  _407
REMARK  168  A    between atoms: _409  and  _411
REMARK  169  A    between atoms: _411  and  _412
REMARK  170  A    between atoms: _411  and  _414
REMARK  171  A    between atoms: _414  and  _415
REMARK  172  A    between atoms: _420  and  _422
REMARK  173  A    between atoms: _422  and  _423
REMARK  174  A    between atoms: _422  and  _425
REMARK  175  A    between atoms: _428  and  _430
REMARK  176  A    between atoms: _430  and  _431
REMARK  177  A    between atoms: _430  and  _433
REMARK  178  A    between atoms: _433  and  _434
REMARK  179  A    between atoms: _437  and  _439
REMARK  180  A    between atoms: _439  and  _440
REMARK  181  A    between atoms: _439  and  _442
REMARK  182  A    between atoms: _442  and  _443
REMARK  183  A    between atoms: _446  and  _448
REMARK  184  A    between atoms: _448  and  _449
REMARK  185  A    between atoms: _448  and  _451
REMARK  186  A    between atoms: _451  and  _452
REMARK  187  A    between atoms: _456  and  _457
REMARK  188  A    between atoms: _462  and  _464
REMARK  189  A    between atoms: _464  and  _465
REMARK  190  A    between atoms: _464  and  _467
REMARK  191  A    between atoms: _470  and  _472
REMARK  192  A    between atoms: _472  and  _473
REMARK  193  A    between atoms: _472  and  _475
REMARK  194  A    between atoms: _475  and  _476
REMARK  195  A    between atoms: _479  and  _481
REMARK  196  A    between atoms: _481  and  _482
REMARK  197  A    between atoms: _481  and  _484
REMARK  198  A    between atoms: _484  and  _485
REMARK  199  A    between atoms: _488  and  _490
REMARK  200  A    between atoms: _490  and  _491
REMARK  201  A    between atoms: _493  and  _495
REMARK  202  A    between atoms: _495  and  _496
REMARK  203  A    between atoms: _495  and  _498
REMARK  204  A    between atoms: _498  and  _499
REMARK  205  A    between atoms: _499  and  _500
REMARK  206  A    between atoms: _500  and  _501
REMARK                            x       y       z     vdW  Elec       q    Type
REMARK                         _______ _______ _______ _____ _____    ______ ____
ROOT
ATOM      1  O   HOH     1      -5.797  28.083   2.101  0.00  0.00    +0.000 OA
ENDROOT
TORSDOF 0
REMARK  Name = ../refined-set-2016/2fmb/2fmb_pocket.pdb
REMARK  206 active torsions:
REMARK  status: ('A' for Active; 'I' for Inactive)
REMARK    1  A    between atoms: _1  and  _3
REMARK    2  A    between atoms: _3  and  _4
REMARK    3  A    between atoms: _3  and  _6
REMARK    4  A    between atoms: _6  and  _7
REMARK    5  A    between atoms: _7  and  _8
REMARK    6  A    between atoms: _8  and  _9
REMARK    7  A    between atoms: _18  and  _20
REMARK    8  A    between atoms: _20  and  _21
REMARK    9  A    between atoms: _20  and  _23
REMARK   10  A    between atoms: _23  and  _24
REMARK   11  A    between atoms: _27  and  _29
REMARK   12  A    between atoms: _29  and  _30
REMARK   13  A    between atoms: _29  and  _32
REMARK   14  A    between atoms: _32  and  _33
REMARK   15  A    between atoms: _36  and  _38
REMARK   16  A    between atoms: _38  and  _39
REMARK   17  A    between atoms: _38  and  _41
REMARK   18  A    between atoms: _41  and  _42
REMARK   19  A    between atoms: _45  and  _47
REMARK   20  A    between atoms: _47  and  _48
REMARK   21  A    between atoms: _47  and  _50
REMARK   22  A    between atoms: _50  and  _51
REMARK   23  A    between atoms: _54  and  _56
REMARK   24  A    between atoms: _56  and  _57
REMARK   25  A    between atoms: _59  and  _61
REMARK   26  A    between atoms: _61  and  _62
REMARK   27  A    between atoms: _65  and  _67
REMARK   28  A    between atoms: _67  and  _68
REMARK   29  A    between atoms: _67  and  _70
REMARK   30  A    between atoms: _70  and  _71
REMARK   31  A    between atoms: _74  and  _76
REMARK   32  A    between atoms: _76  and  _77
REMARK   33  A    between atoms: _76  and  _79
REMARK   34  A    between atoms: _79  and  _80
REMARK   35  A    between atoms: _83  and  _85
REMARK   36  A    between atoms: _85  and  _86
REMARK   37  A    between atoms: _85  and  _88
REMARK   38  A    between atoms: _88  and  _89
REMARK   39  A    between atoms: _91  and  _93
REMARK   40  A    between atoms: _93  and  _94
REMARK   41  A    between atoms: _93  and  _96
REMARK   42  A    between atoms: _99  and  _101
REMARK   43  A    between atoms: _101  and  _102
REMARK   44  A    between atoms: _101  and  _104
REMARK   45  A    between atoms: _104  and  _105
REMARK   46  A    between atoms: _108  and  _110
REMARK   47  A    between atoms: _110  and  _111
REMARK   48  A    between atoms: _113  and  _115
REMARK   49  A    between atoms: _115  and  _116
REMARK   50  A    between atoms: _115  and  _118
REMARK   51  A    between atoms: _118  and  _119
REMARK   52  A    between atoms: _122  and  _124
REMARK   53  A    between atoms: _124  and  _125
REMARK   54  A    between atoms: _127  and  _129
REMARK   55  A    between atoms: _129  and  _130
REMARK   56  A    between atoms: _132  and  _134
REMARK   57  A    between atoms: _134  and  _135
REMARK   58  A    between atoms: _134  and  _137
REMARK   59  A    between atoms: _140  and  _142
REMARK   60  A    between atoms: _142  and  _143
REMARK   61  A    between atoms: _145  and  _147
REMARK   62  A    between atoms: _147  and  _148
REMARK   63  A    between atoms: _150  and  _152
REMARK   64  A    between atoms: _152  and  _153
REMARK   65  A    between atoms: _152  and  _155
REMARK   66  A    between atoms: _155  and  _156
REMARK   67  A    between atoms: _161  and  _163
REMARK   68  A    between atoms: _163  and  _164
REMARK   69  A    between atoms: _163  and  _166
REMARK   70  A    between atoms: _169  and  _171
REMARK   71  A    between atoms: _171  and  _172
REMARK   72  A    between atoms: _171  and  _174
REMARK   73  A    between atoms: _174  and  _175
REMARK   74  A    between atoms: _178  and  _180
REMARK   75  A    between atoms: _180  and  _181
REMARK   76  A    between atoms: _180  and  _183
REMARK   77  A    between atoms: _183  and  _184
REMARK   78  A    between atoms: _188  and  _189
REMARK   79  A    between atoms: _194  and  _196
REMARK   80  A    between atoms: _196  and  _197
REMARK   81  A    between atoms: _196  and  _199
REMARK   82  A    between atoms: _202  and  _204
REMARK   83  A    between atoms: _204  and  _205
REMARK   84  A    between atoms: _204  and  _207
REMARK   85  A    between atoms: _207  and  _208
REMARK   86  A    between atoms: _211  and  _213
REMARK   87  A    between atoms: _213  and  _214
REMARK   88  A    between atoms: _213  and  _216
REMARK   89  A    between atoms: _216  and  _217
REMARK   90  A    between atoms: _220  and  _222
REMARK   91  A    between atoms: _222  and  _223
REMARK   92  A    between atoms: _222  and  _225
REMARK   93  A    between atoms: _225  and  _226
REMARK   94  A    between atoms: _229  and  _231
REMARK   95  A    between atoms: _231  and  _232
REMARK   96  A    between atoms: _234  and  _236
REMARK   97  A    between atoms: _236  and  _237
REMARK   98  A    between atoms: _236  and  _239
REMARK   99  A    between atoms: _239  and  _240
REMARK  100  A    between atoms: _240  and  _241
REMARK  101  A    between atoms: _241  and  _242
REMARK  102  A    between atoms: _251  and  _253
REMARK  103  A    between atoms: _253  and  _254
REMARK  104  A    between atoms: _253  and  _256
REMARK  105  A    between atoms: _256  and  _257
REMARK  106  A    between atoms: _257  and  _258
REMARK  107  A    between atoms: _258  and  _259
REMARK  108  A    between atoms: _268  and  _270
REMARK  109  A    between atoms: _270  and  _271
REMARK  110  A    between atoms: _270  and  _273
REMARK  111  A    between atoms: _273  and  _274
REMARK  112  A    between atoms: _277  and  _279
REMARK  113  A    between atoms: _279  and  _280
REMARK  114  A    between atoms: _279  and  _282
REMARK  115  A    between atoms: _282  and  _283
REMARK  116  A    between atoms: _286  and  _288
REMARK  117  A    between atoms: _288  and  _289
REMARK  118  A    between atoms: _288  and  _291
REMARK  119  A    between atoms: _291  and  _292
REMARK  120  A    between atoms: _295  and  _297
REMARK  121  A    between atoms: _297  and  _298
REMARK  122  A    between atoms: _297  and  _300
REMARK  123  A    between atoms: _300  and  _301
REMARK  124  A    between atoms: _304  and  _306
REMARK  125  A    between atoms: _306  and  _307
REMARK  126  A    between atoms: _306  and  _309
REMARK  127  A    between atoms: _309  and  _310
REMARK  128  A    between atoms: _313  and  _315
REMARK  129  A    between atoms: _315  and  _316
REMARK  130  A    between atoms: _318  and  _320
REMARK  131  A    between atoms: _320  and  _321
REMARK  132  A    between atoms: _324  and  _326
REMARK  133  A    between atoms: _326  and  _327
REMARK  134  A    between atoms: _326  and  _329
REMARK  135  A    between atoms: _329  and  _330
REMARK  136  A    between atoms: _333  and  _335
REMARK  137  A    between atoms: _335  and  _336
REMARK  138  A    between atoms: _335  and  _338
REMARK  139  A    between atoms: _338  and  _339
REMARK  140  A    between atoms: _342  and  _344
REMARK  141  A    between atoms: _344  and  _345
REMARK  142  A    between atoms: _344  and  _347
REMARK  143  A    between atoms: _347  and  _348
REMARK  144  A    between atoms: _350  and  _352
REMARK  145  A    between atoms: _352  and  _353
REMARK  146  A    between atoms: _352  and  _355
REMARK  147  A    between atoms: _358  and  _360
REMARK  148  A    between atoms: _360  and  _361
REMARK  149  A    between atoms: _360  and  _363
REMARK  150  A    between atoms: _363  and  _364
REMARK  151  A    between atoms: _367  and  _369
REMARK  152  A    between atoms: _369  and  _370
REMARK  153  A    between atoms: _372  and  _374
REMARK  154  A    between atoms: _374  and  _375
REMARK  155  A    between atoms: _374  and  _377
REMARK  156  A    between atoms: _377  and  _378
REMARK  157  A    between atoms: _381  and  _383
REMARK  158  A    between atoms: _383  and  _384
REMARK  159  A    between atoms: _386  and  _388
REMARK  160  A    between atoms: _388  and  _389
REMARK  161  A    between atoms: _391  and  _393
REMARK  162  A    between atoms: _393  and  _394
REMARK  163  A    between atoms: _393  and  _396
REMARK  164  A    between atoms: _399  and  _401
REMARK  165  A    between atoms: _401  and  _402
REMARK  166  A    between atoms: _404  and  _406
REMARK  167  A    between atoms: _406  and  _407
REMARK  168  A    between atoms: _409  and  _411
REMARK  169  A    between atoms: _411  and  _412
REMARK  170  A    between atoms: _411  and  _414
REMARK  171  A    between atoms: _414  and  _415
REMARK  172  A    between atoms: _420  and  _422
REMARK  173  A    between atoms: _422  and  _423
REMARK  174  A    between atoms: _422  and  _425
REMARK  175  A    between atoms: _428  and  _430
REMARK  176  A    between atoms: _430  and  _431
REMARK  177  A    between atoms: _430  and  _433
REMARK  178  A    between atoms: _433  and  _434
REMARK  179  A    between atoms: _437  and  _439
REMARK  180  A    between atoms: _439  and  _440
REMARK  181  A    between atoms: _439  and  _442
REMARK  182  A    between atoms: _442  and  _443
REMARK  183  A    between atoms: _446  and  _448
REMARK  184  A    between atoms: _448  and  _449
REMARK  185  A    between atoms: _448  and  _451
REMARK  186  A    between atoms: _451  and  _452
REMARK  187  A    between atoms: _456  and  _457
REMARK  188  A    between atoms: _462  and  _464
REMARK  189  A    between atoms: _464  and  _465
REMARK  190  A    between atoms: _464  and  _467
REMARK  191  A    between atoms: _470  and  _472
REMARK  192  A    between atoms: _472  and  _473
REMARK  193  A    between atoms: _472  and  _475
REMARK  194  A    between atoms: _475  and  _476
REMARK  195  A    between atoms: _479  and  _481
REMARK  196  A    between atoms: _481  and  _482
REMARK  197  A    between atoms: _481  and  _484
REMARK  198  A    between atoms: _484  and  _485
REMARK  199  A    between atoms: _488  and  _490
REMARK  200  A    between atoms: _490  and  _491
REMARK  201  A    between atoms: _493  and  _495
REMARK  202  A    between atoms: _495  and  _496
REMARK  203  A    between atoms: _495  and  _498
REMARK  204  A    between atoms: _498  and  _499
REMARK  205  A    between atoms: _499  and  _500
REMARK  206  A    between atoms: _500  and  _501
REMARK                            x       y       z     vdW  Elec       q    Type
REMARK                         _______ _______ _______ _____ _____    ______ ____
ROOT
ATOM      1  O   HOH     1      -7.410  27.277  -7.968  0.00  0.00    +0.000 OA
ENDROOT
TORSDOF 0
REMARK  Name = ../refined-set-2016/2fmb/2fmb_pocket.pdb
REMARK  206 active torsions:
REMARK  status: ('A' for Active; 'I' for Inactive)
REMARK    1  A    between atoms: _1  and  _3
REMARK    2  A    between atoms: _3  and  _4
REMARK    3  A    between atoms: _3  and  _6
REMARK    4  A    between atoms: _6  and  _7
REMARK    5  A    between atoms: _7  and  _8
REMARK    6  A    between atoms: _8  and  _9
REMARK    7  A    between atoms: _18  and  _20
REMARK    8  A    between atoms: _20  and  _21
REMARK    9  A    between atoms: _20  and  _23
REMARK   10  A    between atoms: _23  and  _24
REMARK   11  A    between atoms: _27  and  _29
REMARK   12  A    between atoms: _29  and  _30
REMARK   13  A    between atoms: _29  and  _32
REMARK   14  A    between atoms: _32  and  _33
REMARK   15  A    between atoms: _36  and  _38
REMARK   16  A    between atoms: _38  and  _39
REMARK   17  A    between atoms: _38  and  _41
REMARK   18  A    between atoms: _41  and  _42
REMARK   19  A    between atoms: _45  and  _47
REMARK   20  A    between atoms: _47  and  _48
REMARK   21  A    between atoms: _47  and  _50
REMARK   22  A    between atoms: _50  and  _51
REMARK   23  A    between atoms: _54  and  _56
REMARK   24  A    between atoms: _56  and  _57
REMARK   25  A    between atoms: _59  and  _61
REMARK   26  A    between atoms: _61  and  _62
REMARK   27  A    between atoms: _65  and  _67
REMARK   28  A    between atoms: _67  and  _68
REMARK   29  A    between atoms: _67  and  _70
REMARK   30  A    between atoms: _70  and  _71
REMARK   31  A    between atoms: _74  and  _76
REMARK   32  A    between atoms: _76  and  _77
REMARK   33  A    between atoms: _76  and  _79
REMARK   34  A    between atoms: _79  and  _80
REMARK   35  A    between atoms: _83  and  _85
REMARK   36  A    between atoms: _85  and  _86
REMARK   37  A    between atoms: _85  and  _88
REMARK   38  A    between atoms: _88  and  _89
REMARK   39  A    between atoms: _91  and  _93
REMARK   40  A    between atoms: _93  and  _94
REMARK   41  A    between atoms: _93  and  _96
REMARK   42  A    between atoms: _99  and  _101
REMARK   43  A    between atoms: _101  and  _102
REMARK   44  A    between atoms: _101  and  _104
REMARK   45  A    between atoms: _104  and  _105
REMARK   46  A    between atoms: _108  and  _110
REMARK   47  A    between atoms: _110  and  _111
REMARK   48  A    between atoms: _113  and  _115
REMARK   49  A    between atoms: _115  and  _116
REMARK   50  A    between atoms: _115  and  _118
REMARK   51  A    between atoms: _118  and  _119
REMARK   52  A    between atoms: _122  and  _124
REMARK   53  A    between atoms: _124  and  _125
REMARK   54  A    between atoms: _127  and  _129
REMARK   55  A    between atoms: _129  and  _130
REMARK   56  A    between atoms: _132  and  _134
REMARK   57  A    between atoms: _134  and  _135
REMARK   58  A    between atoms: _134  and  _137
REMARK   59  A    between atoms: _140  and  _142
REMARK   60  A    between atoms: _142  and  _143
REMARK   61  A    between atoms: _145  and  _147
REMARK   62  A    between atoms: _147  and  _148
REMARK   63  A    between atoms: _150  and  _152
REMARK   64  A    between atoms: _152  and  _153
REMARK   65  A    between atoms: _152  and  _155
REMARK   66  A    between atoms: _155  and  _156
REMARK   67  A    between atoms: _161  and  _163
REMARK   68  A    between atoms: _163  and  _164
REMARK   69  A    between atoms: _163  and  _166
REMARK   70  A    between atoms: _169  and  _171
REMARK   71  A    between atoms: _171  and  _172
REMARK   72  A    between atoms: _171  and  _174
REMARK   73  A    between atoms: _174  and  _175
REMARK   74  A    between atoms: _178  and  _180
REMARK   75  A    between atoms: _180  and  _181
REMARK   76  A    between atoms: _180  and  _183
REMARK   77  A    between atoms: _183  and  _184
REMARK   78  A    between atoms: _188  and  _189
REMARK   79  A    between atoms: _194  and  _196
REMARK   80  A    between atoms: _196  and  _197
REMARK   81  A    between atoms: _196  and  _199
REMARK   82  A    between atoms: _202  and  _204
REMARK   83  A    between atoms: _204  and  _205
REMARK   84  A    between atoms: _204  and  _207
REMARK   85  A    between atoms: _207  and  _208
REMARK   86  A    between atoms: _211  and  _213
REMARK   87  A    between atoms: _213  and  _214
REMARK   88  A    between atoms: _213  and  _216
REMARK   89  A    between atoms: _216  and  _217
REMARK   90  A    between atoms: _220  and  _222
REMARK   91  A    between atoms: _222  and  _223
REMARK   92  A    between atoms: _222  and  _225
REMARK   93  A    between atoms: _225  and  _226
REMARK   94  A    between atoms: _229  and  _231
REMARK   95  A    between atoms: _231  and  _232
REMARK   96  A    between atoms: _234  and  _236
REMARK   97  A    between atoms: _236  and  _237
REMARK   98  A    between atoms: _236  and  _239
REMARK   99  A    between atoms: _239  and  _240
REMARK  100  A    between atoms: _240  and  _241
REMARK  101  A    between atoms: _241  and  _242
REMARK  102  A    between atoms: _251  and  _253
REMARK  103  A    between atoms: _253  and  _254
REMARK  104  A    between atoms: _253  and  _256
REMARK  105  A    between atoms: _256  and  _257
REMARK  106  A    between atoms: _257  and  _258
REMARK  107  A    between atoms: _258  and  _259
REMARK  108  A    between atoms: _268  and  _270
REMARK  109  A    between atoms: _270  and  _271
REMARK  110  A    between atoms: _270  and  _273
REMARK  111  A    between atoms: _273  and  _274
REMARK  112  A    between atoms: _277  and  _279
REMARK  113  A    between atoms: _279  and  _280
REMARK  114  A    between atoms: _279  and  _282
REMARK  115  A    between atoms: _282  and  _283
REMARK  116  A    between atoms: _286  and  _288
REMARK  117  A    between atoms: _288  and  _289
REMARK  118  A    between atoms: _288  and  _291
REMARK  119  A    between atoms: _291  and  _292
REMARK  120  A    between atoms: _295  and  _297
REMARK  121  A    between atoms: _297  and  _298
REMARK  122  A    between atoms: _297  and  _300
REMARK  123  A    between atoms: _300  and  _301
REMARK  124  A    between atoms: _304  and  _306
REMARK  125  A    between atoms: _306  and  _307
REMARK  126  A    between atoms: _306  and  _309
REMARK  127  A    between atoms: _309  and  _310
REMARK  128  A    between atoms: _313  and  _315
REMARK  129  A    between atoms: _315  and  _316
REMARK  130  A    between atoms: _318  and  _320
REMARK  131  A    between atoms: _320  and  _321
REMARK  132  A    between atoms: _324  and  _326
REMARK  133  A    between atoms: _326  and  _327
REMARK  134  A    between atoms: _326  and  _329
REMARK  135  A    between atoms: _329  and  _330
REMARK  136  A    between atoms: _333  and  _335
REMARK  137  A    between atoms: _335  and  _336
REMARK  138  A    between atoms: _335  and  _338
REMARK  139  A    between atoms: _338  and  _339
REMARK  140  A    between atoms: _342  and  _344
REMARK  141  A    between atoms: _344  and  _345
REMARK  142  A    between atoms: _344  and  _347
REMARK  143  A    between atoms: _347  and  _348
REMARK  144  A    between atoms: _350  and  _352
REMARK  145  A    between atoms: _352  and  _353
REMARK  146  A    between atoms: _352  and  _355
REMARK  147  A    between atoms: _358  and  _360
REMARK  148  A    between atoms: _360  and  _361
REMARK  149  A    between atoms: _360  and  _363
REMARK  150  A    between atoms: _363  and  _364
REMARK  151  A    between atoms: _367  and  _369
REMARK  152  A    between atoms: _369  and  _370
REMARK  153  A    between atoms: _372  and  _374
REMARK  154  A    between atoms: _374  and  _375
REMARK  155  A    between atoms: _374  and  _377
REMARK  156  A    between atoms: _377  and  _378
REMARK  157  A    between atoms: _381  and  _383
REMARK  158  A    between atoms: _383  and  _384
REMARK  159  A    between atoms: _386  and  _388
REMARK  160  A    between atoms: _388  and  _389
REMARK  161  A    between atoms: _391  and  _393
REMARK  162  A    between atoms: _393  and  _394
REMARK  163  A    between atoms: _393  and  _396
REMARK  164  A    between atoms: _399  and  _401
REMARK  165  A    between atoms: _401  and  _402
REMARK  166  A    between atoms: _404  and  _406
REMARK  167  A    between atoms: _406  and  _407
REMARK  168  A    between atoms: _409  and  _411
REMARK  169  A    between atoms: _411  and  _412
REMARK  170  A    between atoms: _411  and  _414
REMARK  171  A    between atoms: _414  and  _415
REMARK  172  A    between atoms: _420  and  _422
REMARK  173  A    between atoms: _422  and  _423
REMARK  174  A    between atoms: _422  and  _425
REMARK  175  A    between atoms: _428  and  _430
REMARK  176  A    between atoms: _430  and  _431
REMARK  177  A    between atoms: _430  and  _433
REMARK  178  A    between atoms: _433  and  _434
REMARK  179  A    between atoms: _437  and  _439
REMARK  180  A    between atoms: _439  and  _440
REMARK  181  A    between atoms: _439  and  _442
REMARK  182  A    between atoms: _442  and  _443
REMARK  183  A    between atoms: _446  and  _448
REMARK  184  A    between atoms: _448  and  _449
REMARK  185  A    between atoms: _448  and  _451
REMARK  186  A    between atoms: _451  and  _452
REMARK  187  A    between atoms: _456  and  _457
REMARK  188  A    between atoms: _462  and  _464
REMARK  189  A    between atoms: _464  and  _465
REMARK  190  A    between atoms: _464  and  _467
REMARK  191  A    between atoms: _470  and  _472
REMARK  192  A    between atoms: _472  and  _473
REMARK  193  A    between atoms: _472  and  _475
REMARK  194  A    between atoms: _475  and  _476
REMARK  195  A    between atoms: _479  and  _481
REMARK  196  A    between atoms: _481  and  _482
REMARK  197  A    between atoms: _481  and  _484
REMARK  198  A    between atoms: _484  and  _485
REMARK  199  A    between atoms: _488  and  _490
REMARK  200  A    between atoms: _490  and  _491
REMARK  201  A    between atoms: _493  and  _495
REMARK  202  A    between atoms: _495  and  _496
REMARK  203  A    between atoms: _495  and  _498
REMARK  204  A    between atoms: _498  and  _499
REMARK  205  A    between atoms: _499  and  _500
REMARK  206  A    between atoms: _500  and  _501
REMARK                            x       y       z     vdW  Elec       q    Type
REMARK                         _______ _______ _______ _____ _____    ______ ____
ROOT
ATOM      1  O   HOH     1      11.074  14.596  -4.395  0.00  0.00    +0.000 OA
ENDROOT
TORSDOF 0
REMARK  Name = ../refined-set-2016/2fmb/2fmb_pocket.pdb
REMARK  206 active torsions:
REMARK  status: ('A' for Active; 'I' for Inactive)
REMARK    1  A    between atoms: _1  and  _3
REMARK    2  A    between atoms: _3  and  _4
REMARK    3  A    between atoms: _3  and  _6
REMARK    4  A    between atoms: _6  and  _7
REMARK    5  A    between atoms: _7  and  _8
REMARK    6  A    between atoms: _8  and  _9
REMARK    7  A    between atoms: _18  and  _20
REMARK    8  A    between atoms: _20  and  _21
REMARK    9  A    between atoms: _20  and  _23
REMARK   10  A    between atoms: _23  and  _24
REMARK   11  A    between atoms: _27  and  _29
REMARK   12  A    between atoms: _29  and  _30
REMARK   13  A    between atoms: _29  and  _32
REMARK   14  A    between atoms: _32  and  _33
REMARK   15  A    between atoms: _36  and  _38
REMARK   16  A    between atoms: _38  and  _39
REMARK   17  A    between atoms: _38  and  _41
REMARK   18  A    between atoms: _41  and  _42
REMARK   19  A    between atoms: _45  and  _47
REMARK   20  A    between atoms: _47  and  _48
REMARK   21  A    between atoms: _47  and  _50
REMARK   22  A    between atoms: _50  and  _51
REMARK   23  A    between atoms: _54  and  _56
REMARK   24  A    between atoms: _56  and  _57
REMARK   25  A    between atoms: _59  and  _61
REMARK   26  A    between atoms: _61  and  _62
REMARK   27  A    between atoms: _65  and  _67
REMARK   28  A    between atoms: _67  and  _68
REMARK   29  A    between atoms: _67  and  _70
REMARK   30  A    between atoms: _70  and  _71
REMARK   31  A    between atoms: _74  and  _76
REMARK   32  A    between atoms: _76  and  _77
REMARK   33  A    between atoms: _76  and  _79
REMARK   34  A    between atoms: _79  and  _80
REMARK   35  A    between atoms: _83  and  _85
REMARK   36  A    between atoms: _85  and  _86
REMARK   37  A    between atoms: _85  and  _88
REMARK   38  A    between atoms: _88  and  _89
REMARK   39  A    between atoms: _91  and  _93
REMARK   40  A    between atoms: _93  and  _94
REMARK   41  A    between atoms: _93  and  _96
REMARK   42  A    between atoms: _99  and  _101
REMARK   43  A    between atoms: _101  and  _102
REMARK   44  A    between atoms: _101  and  _104
REMARK   45  A    between atoms: _104  and  _105
REMARK   46  A    between atoms: _108  and  _110
REMARK   47  A    between atoms: _110  and  _111
REMARK   48  A    between atoms: _113  and  _115
REMARK   49  A    between atoms: _115  and  _116
REMARK   50  A    between atoms: _115  and  _118
REMARK   51  A    between atoms: _118  and  _119
REMARK   52  A    between atoms: _122  and  _124
REMARK   53  A    between atoms: _124  and  _125
REMARK   54  A    between atoms: _127  and  _129
REMARK   55  A    between atoms: _129  and  _130
REMARK   56  A    between atoms: _132  and  _134
REMARK   57  A    between atoms: _134  and  _135
REMARK   58  A    between atoms: _134  and  _137
REMARK   59  A    between atoms: _140  and  _142
REMARK   60  A    between atoms: _142  and  _143
REMARK   61  A    between atoms: _145  and  _147
REMARK   62  A    between atoms: _147  and  _148
REMARK   63  A    between atoms: _150  and  _152
REMARK   64  A    between atoms: _152  and  _153
REMARK   65  A    between atoms: _152  and  _155
REMARK   66  A    between atoms: _155  and  _156
REMARK   67  A    between atoms: _161  and  _163
REMARK   68  A    between atoms: _163  and  _164
REMARK   69  A    between atoms: _163  and  _166
REMARK   70  A    between atoms: _169  and  _171
REMARK   71  A    between atoms: _171  and  _172
REMARK   72  A    between atoms: _171  and  _174
REMARK   73  A    between atoms: _174  and  _175
REMARK   74  A    between atoms: _178  and  _180
REMARK   75  A    between atoms: _180  and  _181
REMARK   76  A    between atoms: _180  and  _183
REMARK   77  A    between atoms: _183  and  _184
REMARK   78  A    between atoms: _188  and  _189
REMARK   79  A    between atoms: _194  and  _196
REMARK   80  A    between atoms: _196  and  _197
REMARK   81  A    between atoms: _196  and  _199
REMARK   82  A    between atoms: _202  and  _204
REMARK   83  A    between atoms: _204  and  _205
REMARK   84  A    between atoms: _204  and  _207
REMARK   85  A    between atoms: _207  and  _208
REMARK   86  A    between atoms: _211  and  _213
REMARK   87  A    between atoms: _213  and  _214
REMARK   88  A    between atoms: _213  and  _216
REMARK   89  A    between atoms: _216  and  _217
REMARK   90  A    between atoms: _220  and  _222
REMARK   91  A    between atoms: _222  and  _223
REMARK   92  A    between atoms: _222  and  _225
REMARK   93  A    between atoms: _225  and  _226
REMARK   94  A    between atoms: _229  and  _231
REMARK   95  A    between atoms: _231  and  _232
REMARK   96  A    between atoms: _234  and  _236
REMARK   97  A    between atoms: _236  and  _237
REMARK   98  A    between atoms: _236  and  _239
REMARK   99  A    between atoms: _239  and  _240
REMARK  100  A    between atoms: _240  and  _241
REMARK  101  A    between atoms: _241  and  _242
REMARK  102  A    between atoms: _251  and  _253
REMARK  103  A    between atoms: _253  and  _254
REMARK  104  A    between atoms: _253  and  _256
REMARK  105  A    between atoms: _256  and  _257
REMARK  106  A    between atoms: _257  and  _258
REMARK  107  A    between atoms: _258  and  _259
REMARK  108  A    between atoms: _268  and  _270
REMARK  109  A    between atoms: _270  and  _271
REMARK  110  A    between atoms: _270  and  _273
REMARK  111  A    between atoms: _273  and  _274
REMARK  112  A    between atoms: _277  and  _279
REMARK  113  A    between atoms: _279  and  _280
REMARK  114  A    between atoms: _279  and  _282
REMARK  115  A    between atoms: _282  and  _283
REMARK  116  A    between atoms: _286  and  _288
REMARK  117  A    between atoms: _288  and  _289
REMARK  118  A    between atoms: _288  and  _291
REMARK  119  A    between atoms: _291  and  _292
REMARK  120  A    between atoms: _295  and  _297
REMARK  121  A    between atoms: _297  and  _298
REMARK  122  A    between atoms: _297  and  _300
REMARK  123  A    between atoms: _300  and  _301
REMARK  124  A    between atoms: _304  and  _306
REMARK  125  A    between atoms: _306  and  _307
REMARK  126  A    between atoms: _306  and  _309
REMARK  127  A    between atoms: _309  and  _310
REMARK  128  A    between atoms: _313  and  _315
REMARK  129  A    between atoms: _315  and  _316
REMARK  130  A    between atoms: _318  and  _320
REMARK  131  A    between atoms: _320  and  _321
REMARK  132  A    between atoms: _324  and  _326
REMARK  133  A    between atoms: _326  and  _327
REMARK  134  A    between atoms: _326  and  _329
REMARK  135  A    between atoms: _329  and  _330
REMARK  136  A    between atoms: _333  and  _335
REMARK  137  A    between atoms: _335  and  _336
REMARK  138  A    between atoms: _335  and  _338
REMARK  139  A    between atoms: _338  and  _339
REMARK  140  A    between atoms: _342  and  _344
REMARK  141  A    between atoms: _344  and  _345
REMARK  142  A    between atoms: _344  and  _347
REMARK  143  A    between atoms: _347  and  _348
REMARK  144  A    between atoms: _350  and  _352
REMARK  145  A    between atoms: _352  and  _353
REMARK  146  A    between atoms: _352  and  _355
REMARK  147  A    between atoms: _358  and  _360
REMARK  148  A    between atoms: _360  and  _361
REMARK  149  A    between atoms: _360  and  _363
REMARK  150  A    between atoms: _363  and  _364
REMARK  151  A    between atoms: _367  and  _369
REMARK  152  A    between atoms: _369  and  _370
REMARK  153  A    between atoms: _372  and  _374
REMARK  154  A    between atoms: _374  and  _375
REMARK  155  A    between atoms: _374  and  _377
REMARK  156  A    between atoms: _377  and  _378
REMARK  157  A    between atoms: _381  and  _383
REMARK  158  A    between atoms: _383  and  _384
REMARK  159  A    between atoms: _386  and  _388
REMARK  160  A    between atoms: _388  and  _389
REMARK  161  A    between atoms: _391  and  _393
REMARK  162  A    between atoms: _393  and  _394
REMARK  163  A    between atoms: _393  and  _396
REMARK  164  A    between atoms: _399  and  _401
REMARK  165  A    between atoms: _401  and  _402
REMARK  166  A    between atoms: _404  and  _406
REMARK  167  A    between atoms: _406  and  _407
REMARK  168  A    between atoms: _409  and  _411
REMARK  169  A    between atoms: _411  and  _412
REMARK  170  A    between atoms: _411  and  _414
REMARK  171  A    between atoms: _414  and  _415
REMARK  172  A    between atoms: _420  and  _422
REMARK  173  A    between atoms: _422  and  _423
REMARK  174  A    between atoms: _422  and  _425
REMARK  175  A    between atoms: _428  and  _430
REMARK  176  A    between atoms: _430  and  _431
REMARK  177  A    between atoms: _430  and  _433
REMARK  178  A    between atoms: _433  and  _434
REMARK  179  A    between atoms: _437  and  _439
REMARK  180  A    between atoms: _439  and  _440
REMARK  181  A    between atoms: _439  and  _442
REMARK  182  A    between atoms: _442  and  _443
REMARK  183  A    between atoms: _446  and  _448
REMARK  184  A    between atoms: _448  and  _449
REMARK  185  A    between atoms: _448  and  _451
REMARK  186  A    between atoms: _451  and  _452
REMARK  187  A    between atoms: _456  and  _457
REMARK  188  A    between atoms: _462  and  _464
REMARK  189  A    between atoms: _464  and  _465
REMARK  190  A    between atoms: _464  and  _467
REMARK  191  A    between atoms: _470  and  _472
REMARK  192  A    between atoms: _472  and  _473
REMARK  193  A    between atoms: _472  and  _475
REMARK  194  A    between atoms: _475  and  _476
REMARK  195  A    between atoms: _479  and  _481
REMARK  196  A    between atoms: _481  and  _482
REMARK  197  A    between atoms: _481  and  _484
REMARK  198  A    between atoms: _484  and  _485
REMARK  199  A    between atoms: _488  and  _490
REMARK  200  A    between atoms: _490  and  _491
REMARK  201  A    between atoms: _493  and  _495
REMARK  202  A    between atoms: _495  and  _496
REMARK  203  A    between atoms: _495  and  _498
REMARK  204  A    between atoms: _498  and  _499
REMARK  205  A    between atoms: _499  and  _500
REMARK  206  A    between atoms: _500  and  _501
REMARK                            x       y       z     vdW  Elec       q    Type
REMARK                         _______ _______ _______ _____ _____    ______ ____
ROOT
ATOM      1  O   HOH     1      11.082  14.805  -1.720  0.00  0.00    +0.000 OA
ENDROOT
TORSDOF 0
REMARK  Name = ../refined-set-2016/2fmb/2fmb_pocket.pdb
REMARK  206 active torsions:
REMARK  status: ('A' for Active; 'I' for Inactive)
REMARK    1  A    between atoms: _1  and  _3
REMARK    2  A    between atoms: _3  and  _4
REMARK    3  A    between atoms: _3  and  _6
REMARK    4  A    between atoms: _6  and  _7
REMARK    5  A    between atoms: _7  and  _8
REMARK    6  A    between atoms: _8  and  _9
REMARK    7  A    between atoms: _18  and  _20
REMARK    8  A    between atoms: _20  and  _21
REMARK    9  A    between atoms: _20  and  _23
REMARK   10  A    between atoms: _23  and  _24
REMARK   11  A    between atoms: _27  and  _29
REMARK   12  A    between atoms: _29  and  _30
REMARK   13  A    between atoms: _29  and  _32
REMARK   14  A    between atoms: _32  and  _33
REMARK   15  A    between atoms: _36  and  _38
REMARK   16  A    between atoms: _38  and  _39
REMARK   17  A    between atoms: _38  and  _41
REMARK   18  A    between atoms: _41  and  _42
REMARK   19  A    between atoms: _45  and  _47
REMARK   20  A    between atoms: _47  and  _48
REMARK   21  A    between atoms: _47  and  _50
REMARK   22  A    between atoms: _50  and  _51
REMARK   23  A    between atoms: _54  and  _56
REMARK   24  A    between atoms: _56  and  _57
REMARK   25  A    between atoms: _59  and  _61
REMARK   26  A    between atoms: _61  and  _62
REMARK   27  A    between atoms: _65  and  _67
REMARK   28  A    between atoms: _67  and  _68
REMARK   29  A    between atoms: _67  and  _70
REMARK   30  A    between atoms: _70  and  _71
REMARK   31  A    between atoms: _74  and  _76
REMARK   32  A    between atoms: _76  and  _77
REMARK   33  A    between atoms: _76  and  _79
REMARK   34  A    between atoms: _79  and  _80
REMARK   35  A    between atoms: _83  and  _85
REMARK   36  A    between atoms: _85  and  _86
REMARK   37  A    between atoms: _85  and  _88
REMARK   38  A    between atoms: _88  and  _89
REMARK   39  A    between atoms: _91  and  _93
REMARK   40  A    between atoms: _93  and  _94
REMARK   41  A    between atoms: _93  and  _96
REMARK   42  A    between atoms: _99  and  _101
REMARK   43  A    between atoms: _101  and  _102
REMARK   44  A    between atoms: _101  and  _104
REMARK   45  A    between atoms: _104  and  _105
REMARK   46  A    between atoms: _108  and  _110
REMARK   47  A    between atoms: _110  and  _111
REMARK   48  A    between atoms: _113  and  _115
REMARK   49  A    between atoms: _115  and  _116
REMARK   50  A    between atoms: _115  and  _118
REMARK   51  A    between atoms: _118  and  _119
REMARK   52  A    between atoms: _122  and  _124
REMARK   53  A    between atoms: _124  and  _125
REMARK   54  A    between atoms: _127  and  _129
REMARK   55  A    between atoms: _129  and  _130
REMARK   56  A    between atoms: _132  and  _134
REMARK   57  A    between atoms: _134  and  _135
REMARK   58  A    between atoms: _134  and  _137
REMARK   59  A    between atoms: _140  and  _142
REMARK   60  A    between atoms: _142  and  _143
REMARK   61  A    between atoms: _145  and  _147
REMARK   62  A    between atoms: _147  and  _148
REMARK   63  A    between atoms: _150  and  _152
REMARK   64  A    between atoms: _152  and  _153
REMARK   65  A    between atoms: _152  and  _155
REMARK   66  A    between atoms: _155  and  _156
REMARK   67  A    between atoms: _161  and  _163
REMARK   68  A    between atoms: _163  and  _164
REMARK   69  A    between atoms: _163  and  _166
REMARK   70  A    between atoms: _169  and  _171
REMARK   71  A    between atoms: _171  and  _172
REMARK   72  A    between atoms: _171  and  _174
REMARK   73  A    between atoms: _174  and  _175
REMARK   74  A    between atoms: _178  and  _180
REMARK   75  A    between atoms: _180  and  _181
REMARK   76  A    between atoms: _180  and  _183
REMARK   77  A    between atoms: _183  and  _184
REMARK   78  A    between atoms: _188  and  _189
REMARK   79  A    between atoms: _194  and  _196
REMARK   80  A    between atoms: _196  and  _197
REMARK   81  A    between atoms: _196  and  _199
REMARK   82  A    between atoms: _202  and  _204
REMARK   83  A    between atoms: _204  and  _205
REMARK   84  A    between atoms: _204  and  _207
REMARK   85  A    between atoms: _207  and  _208
REMARK   86  A    between atoms: _211  and  _213
REMARK   87  A    between atoms: _213  and  _214
REMARK   88  A    between atoms: _213  and  _216
REMARK   89  A    between atoms: _216  and  _217
REMARK   90  A    between atoms: _220  and  _222
REMARK   91  A    between atoms: _222  and  _223
REMARK   92  A    between atoms: _222  and  _225
REMARK   93  A    between atoms: _225  and  _226
REMARK   94  A    between atoms: _229  and  _231
REMARK   95  A    between atoms: _231  and  _232
REMARK   96  A    between atoms: _234  and  _236
REMARK   97  A    between atoms: _236  and  _237
REMARK   98  A    between atoms: _236  and  _239
REMARK   99  A    between atoms: _239  and  _240
REMARK  100  A    between atoms: _240  and  _241
REMARK  101  A    between atoms: _241  and  _242
REMARK  102  A    between atoms: _251  and  _253
REMARK  103  A    between atoms: _253  and  _254
REMARK  104  A    between atoms: _253  and  _256
REMARK  105  A    between atoms: _256  and  _257
REMARK  106  A    between atoms: _257  and  _258
REMARK  107  A    between atoms: _258  and  _259
REMARK  108  A    between atoms: _268  and  _270
REMARK  109  A    between atoms: _270  and  _271
REMARK  110  A    between atoms: _270  and  _273
REMARK  111  A    between atoms: _273  and  _274
REMARK  112  A    between atoms: _277  and  _279
REMARK  113  A    between atoms: _279  and  _280
REMARK  114  A    between atoms: _279  and  _282
REMARK  115  A    between atoms: _282  and  _283
REMARK  116  A    between atoms: _286  and  _288
REMARK  117  A    between atoms: _288  and  _289
REMARK  118  A    between atoms: _288  and  _291
REMARK  119  A    between atoms: _291  and  _292
REMARK  120  A    between atoms: _295  and  _297
REMARK  121  A    between atoms: _297  and  _298
REMARK  122  A    between atoms: _297  and  _300
REMARK  123  A    between atoms: _300  and  _301
REMARK  124  A    between atoms: _304  and  _306
REMARK  125  A    between atoms: _306  and  _307
REMARK  126  A    between atoms: _306  and  _309
REMARK  127  A    between atoms: _309  and  _310
REMARK  128  A    between atoms: _313  and  _315
REMARK  129  A    between atoms: _315  and  _316
REMARK  130  A    between atoms: _318  and  _320
REMARK  131  A    between atoms: _320  and  _321
REMARK  132  A    between atoms: _324  and  _326
REMARK  133  A    between atoms: _326  and  _327
REMARK  134  A    between atoms: _326  and  _329
REMARK  135  A    between atoms: _329  and  _330
REMARK  136  A    between atoms: _333  and  _335
REMARK  137  A    between atoms: _335  and  _336
REMARK  138  A    between atoms: _335  and  _338
REMARK  139  A    between atoms: _338  and  _339
REMARK  140  A    between atoms: _342  and  _344
REMARK  141  A    between atoms: _344  and  _345
REMARK  142  A    between atoms: _344  and  _347
REMARK  143  A    between atoms: _347  and  _348
REMARK  144  A    between atoms: _350  and  _352
REMARK  145  A    between atoms: _352  and  _353
REMARK  146  A    between atoms: _352  and  _355
REMARK  147  A    between atoms: _358  and  _360
REMARK  148  A    between atoms: _360  and  _361
REMARK  149  A    between atoms: _360  and  _363
REMARK  150  A    between atoms: _363  and  _364
REMARK  151  A    between atoms: _367  and  _369
REMARK  152  A    between atoms: _369  and  _370
REMARK  153  A    between atoms: _372  and  _374
REMARK  154  A    between atoms: _374  and  _375
REMARK  155  A    between atoms: _374  and  _377
REMARK  156  A    between atoms: _377  and  _378
REMARK  157  A    between atoms: _381  and  _383
REMARK  158  A    between atoms: _383  and  _384
REMARK  159  A    between atoms: _386  and  _388
REMARK  160  A    between atoms: _388  and  _389
REMARK  161  A    between atoms: _391  and  _393
REMARK  162  A    between atoms: _393  and  _394
REMARK  163  A    between atoms: _393  and  _396
REMARK  164  A    between atoms: _399  and  _401
REMARK  165  A    between atoms: _401  and  _402
REMARK  166  A    between atoms: _404  and  _406
REMARK  167  A    between atoms: _406  and  _407
REMARK  168  A    between atoms: _409  and  _411
REMARK  169  A    between atoms: _411  and  _412
REMARK  170  A    between atoms: _411  and  _414
REMARK  171  A    between atoms: _414  and  _415
REMARK  172  A    between atoms: _420  and  _422
REMARK  173  A    between atoms: _422  and  _423
REMARK  174  A    between atoms: _422  and  _425
REMARK  175  A    between atoms: _428  and  _430
REMARK  176  A    between atoms: _430  and  _431
REMARK  177  A    between atoms: _430  and  _433
REMARK  178  A    between atoms: _433  and  _434
REMARK  179  A    between atoms: _437  and  _439
REMARK  180  A    between atoms: _439  and  _440
REMARK  181  A    between atoms: _439  and  _442
REMARK  182  A    between atoms: _442  and  _443
REMARK  183  A    between atoms: _446  and  _448
REMARK  184  A    between atoms: _448  and  _449
REMARK  185  A    between atoms: _448  and  _451
REMARK  186  A    between atoms: _451  and  _452
REMARK  187  A    between atoms: _456  and  _457
REMARK  188  A    between atoms: _462  and  _464
REMARK  189  A    between atoms: _464  and  _465
REMARK  190  A    between atoms: _464  and  _467
REMARK  191  A    between atoms: _470  and  _472
REMARK  192  A    between atoms: _472  and  _473
REMARK  193  A    between atoms: _472  and  _475
REMARK  194  A    between atoms: _475  and  _476
REMARK  195  A    between atoms: _479  and  _481
REMARK  196  A    between atoms: _481  and  _482
REMARK  197  A    between atoms: _481  and  _484
REMARK  198  A    between atoms: _484  and  _485
REMARK  199  A    between atoms: _488  and  _490
REMARK  200  A    between atoms: _490  and  _491
REMARK  201  A    between atoms: _493  and  _495
REMARK  202  A    between atoms: _495  and  _496
REMARK  203  A    between atoms: _495  and  _498
REMARK  204  A    between atoms: _498  and  _499
REMARK  205  A    between atoms: _499  and  _500
REMARK  206  A    between atoms: _500  and  _501
REMARK                            x       y       z     vdW  Elec       q    Type
REMARK                         _______ _______ _______ _____ _____    ______ ____
ROOT
ATOM      1  O   HOH     1      13.499  16.637  -6.426  0.00  0.00    +0.000 OA
ENDROOT
TORSDOF 0
REMARK  Name = ../refined-set-2016/2fmb/2fmb_pocket.pdb
REMARK  206 active torsions:
REMARK  status: ('A' for Active; 'I' for Inactive)
REMARK    1  A    between atoms: _1  and  _3
REMARK    2  A    between atoms: _3  and  _4
REMARK    3  A    between atoms: _3  and  _6
REMARK    4  A    between atoms: _6  and  _7
REMARK    5  A    between atoms: _7  and  _8
REMARK    6  A    between atoms: _8  and  _9
REMARK    7  A    between atoms: _18  and  _20
REMARK    8  A    between atoms: _20  and  _21
REMARK    9  A    between atoms: _20  and  _23
REMARK   10  A    between atoms: _23  and  _24
REMARK   11  A    between atoms: _27  and  _29
REMARK   12  A    between atoms: _29  and  _30
REMARK   13  A    between atoms: _29  and  _32
REMARK   14  A    between atoms: _32  and  _33
REMARK   15  A    between atoms: _36  and  _38
REMARK   16  A    between atoms: _38  and  _39
REMARK   17  A    between atoms: _38  and  _41
REMARK   18  A    between atoms: _41  and  _42
REMARK   19  A    between atoms: _45  and  _47
REMARK   20  A    between atoms: _47  and  _48
REMARK   21  A    between atoms: _47  and  _50
REMARK   22  A    between atoms: _50  and  _51
REMARK   23  A    between atoms: _54  and  _56
REMARK   24  A    between atoms: _56  and  _57
REMARK   25  A    between atoms: _59  and  _61
REMARK   26  A    between atoms: _61  and  _62
REMARK   27  A    between atoms: _65  and  _67
REMARK   28  A    between atoms: _67  and  _68
REMARK   29  A    between atoms: _67  and  _70
REMARK   30  A    between atoms: _70  and  _71
REMARK   31  A    between atoms: _74  and  _76
REMARK   32  A    between atoms: _76  and  _77
REMARK   33  A    between atoms: _76  and  _79
REMARK   34  A    between atoms: _79  and  _80
REMARK   35  A    between atoms: _83  and  _85
REMARK   36  A    between atoms: _85  and  _86
REMARK   37  A    between atoms: _85  and  _88
REMARK   38  A    between atoms: _88  and  _89
REMARK   39  A    between atoms: _91  and  _93
REMARK   40  A    between atoms: _93  and  _94
REMARK   41  A    between atoms: _93  and  _96
REMARK   42  A    between atoms: _99  and  _101
REMARK   43  A    between atoms: _101  and  _102
REMARK   44  A    between atoms: _101  and  _104
REMARK   45  A    between atoms: _104  and  _105
REMARK   46  A    between atoms: _108  and  _110
REMARK   47  A    between atoms: _110  and  _111
REMARK   48  A    between atoms: _113  and  _115
REMARK   49  A    between atoms: _115  and  _116
REMARK   50  A    between atoms: _115  and  _118
REMARK   51  A    between atoms: _118  and  _119
REMARK   52  A    between atoms: _122  and  _124
REMARK   53  A    between atoms: _124  and  _125
REMARK   54  A    between atoms: _127  and  _129
REMARK   55  A    between atoms: _129  and  _130
REMARK   56  A    between atoms: _132  and  _134
REMARK   57  A    between atoms: _134  and  _135
REMARK   58  A    between atoms: _134  and  _137
REMARK   59  A    between atoms: _140  and  _142
REMARK   60  A    between atoms: _142  and  _143
REMARK   61  A    between atoms: _145  and  _147
REMARK   62  A    between atoms: _147  and  _148
REMARK   63  A    between atoms: _150  and  _152
REMARK   64  A    between atoms: _152  and  _153
REMARK   65  A    between atoms: _152  and  _155
REMARK   66  A    between atoms: _155  and  _156
REMARK   67  A    between atoms: _161  and  _163
REMARK   68  A    between atoms: _163  and  _164
REMARK   69  A    between atoms: _163  and  _166
REMARK   70  A    between atoms: _169  and  _171
REMARK   71  A    between atoms: _171  and  _172
REMARK   72  A    between atoms: _171  and  _174
REMARK   73  A    between atoms: _174  and  _175
REMARK   74  A    between atoms: _178  and  _180
REMARK   75  A    between atoms: _180  and  _181
REMARK   76  A    between atoms: _180  and  _183
REMARK   77  A    between atoms: _183  and  _184
REMARK   78  A    between atoms: _188  and  _189
REMARK   79  A    between atoms: _194  and  _196
REMARK   80  A    between atoms: _196  and  _197
REMARK   81  A    between atoms: _196  and  _199
REMARK   82  A    between atoms: _202  and  _204
REMARK   83  A    between atoms: _204  and  _205
REMARK   84  A    between atoms: _204  and  _207
REMARK   85  A    between atoms: _207  and  _208
REMARK   86  A    between atoms: _211  and  _213
REMARK   87  A    between atoms: _213  and  _214
REMARK   88  A    between atoms: _213  and  _216
REMARK   89  A    between atoms: _216  and  _217
REMARK   90  A    between atoms: _220  and  _222
REMARK   91  A    between atoms: _222  and  _223
REMARK   92  A    between atoms: _222  and  _225
REMARK   93  A    between atoms: _225  and  _226
REMARK   94  A    between atoms: _229  and  _231
REMARK   95  A    between atoms: _231  and  _232
REMARK   96  A    between atoms: _234  and  _236
REMARK   97  A    between atoms: _236  and  _237
REMARK   98  A    between atoms: _236  and  _239
REMARK   99  A    between atoms: _239  and  _240
REMARK  100  A    between atoms: _240  and  _241
REMARK  101  A    between atoms: _241  and  _242
REMARK  102  A    between atoms: _251  and  _253
REMARK  103  A    between atoms: _253  and  _254
REMARK  104  A    between atoms: _253  and  _256
REMARK  105  A    between atoms: _256  and  _257
REMARK  106  A    between atoms: _257  and  _258
REMARK  107  A    between atoms: _258  and  _259
REMARK  108  A    between atoms: _268  and  _270
REMARK  109  A    between atoms: _270  and  _271
REMARK  110  A    between atoms: _270  and  _273
REMARK  111  A    between atoms: _273  and  _274
REMARK  112  A    between atoms: _277  and  _279
REMARK  113  A    between atoms: _279  and  _280
REMARK  114  A    between atoms: _279  and  _282
REMARK  115  A    between atoms: _282  and  _283
REMARK  116  A    between atoms: _286  and  _288
REMARK  117  A    between atoms: _288  and  _289
REMARK  118  A    between atoms: _288  and  _291
REMARK  119  A    between atoms: _291  and  _292
REMARK  120  A    between atoms: _295  and  _297
REMARK  121  A    between atoms: _297  and  _298
REMARK  122  A    between atoms: _297  and  _300
REMARK  123  A    between atoms: _300  and  _301
REMARK  124  A    between atoms: _304  and  _306
REMARK  125  A    between atoms: _306  and  _307
REMARK  126  A    between atoms: _306  and  _309
REMARK  127  A    between atoms: _309  and  _310
REMARK  128  A    between atoms: _313  and  _315
REMARK  129  A    between atoms: _315  and  _316
REMARK  130  A    between atoms: _318  and  _320
REMARK  131  A    between atoms: _320  and  _321
REMARK  132  A    between atoms: _324  and  _326
REMARK  133  A    between atoms: _326  and  _327
REMARK  134  A    between atoms: _326  and  _329
REMARK  135  A    between atoms: _329  and  _330
REMARK  136  A    between atoms: _333  and  _335
REMARK  137  A    between atoms: _335  and  _336
REMARK  138  A    between atoms: _335  and  _338
REMARK  139  A    between atoms: _338  and  _339
REMARK  140  A    between atoms: _342  and  _344
REMARK  141  A    between atoms: _344  and  _345
REMARK  142  A    between atoms: _344  and  _347
REMARK  143  A    between atoms: _347  and  _348
REMARK  144  A    between atoms: _350  and  _352
REMARK  145  A    between atoms: _352  and  _353
REMARK  146  A    between atoms: _352  and  _355
REMARK  147  A    between atoms: _358  and  _360
REMARK  148  A    between atoms: _360  and  _361
REMARK  149  A    between atoms: _360  and  _363
REMARK  150  A    between atoms: _363  and  _364
REMARK  151  A    between atoms: _367  and  _369
REMARK  152  A    between atoms: _369  and  _370
REMARK  153  A    between atoms: _372  and  _374
REMARK  154  A    between atoms: _374  and  _375
REMARK  155  A    between atoms: _374  and  _377
REMARK  156  A    between atoms: _377  and  _378
REMARK  157  A    between atoms: _381  and  _383
REMARK  158  A    between atoms: _383  and  _384
REMARK  159  A    between atoms: _386  and  _388
REMARK  160  A    between atoms: _388  and  _389
REMARK  161  A    between atoms: _391  and  _393
REMARK  162  A    between atoms: _393  and  _394
REMARK  163  A    between atoms: _393  and  _396
REMARK  164  A    between atoms: _399  and  _401
REMARK  165  A    between atoms: _401  and  _402
REMARK  166  A    between atoms: _404  and  _406
REMARK  167  A    between atoms: _406  and  _407
REMARK  168  A    between atoms: _409  and  _411
REMARK  169  A    between atoms: _411  and  _412
REMARK  170  A    between atoms: _411  and  _414
REMARK  171  A    between atoms: _414  and  _415
REMARK  172  A    between atoms: _420  and  _422
REMARK  173  A    between atoms: _422  and  _423
REMARK  174  A    between atoms: _422  and  _425
REMARK  175  A    between atoms: _428  and  _430
REMARK  176  A    between atoms: _430  and  _431
REMARK  177  A    between atoms: _430  and  _433
REMARK  178  A    between atoms: _433  and  _434
REMARK  179  A    between atoms: _437  and  _439
REMARK  180  A    between atoms: _439  and  _440
REMARK  181  A    between atoms: _439  and  _442
REMARK  182  A    between atoms: _442  and  _443
REMARK  183  A    between atoms: _446  and  _448
REMARK  184  A    between atoms: _448  and  _449
REMARK  185  A    between atoms: _448  and  _451
REMARK  186  A    between atoms: _451  and  _452
REMARK  187  A    between atoms: _456  and  _457
REMARK  188  A    between atoms: _462  and  _464
REMARK  189  A    between atoms: _464  and  _465
REMARK  190  A    between atoms: _464  and  _467
REMARK  191  A    between atoms: _470  and  _472
REMARK  192  A    between atoms: _472  and  _473
REMARK  193  A    between atoms: _472  and  _475
REMARK  194  A    between atoms: _475  and  _476
REMARK  195  A    between atoms: _479  and  _481
REMARK  196  A    between atoms: _481  and  _482
REMARK  197  A    between atoms: _481  and  _484
REMARK  198  A    between atoms: _484  and  _485
REMARK  199  A    between atoms: _488  and  _490
REMARK  200  A    between atoms: _490  and  _491
REMARK  201  A    between atoms: _493  and  _495
REMARK  202  A    between atoms: _495  and  _496
REMARK  203  A    between atoms: _495  and  _498
REMARK  204  A    between atoms: _498  and  _499
REMARK  205  A    between atoms: _499  and  _500
REMARK  206  A    between atoms: _500  and  _501
REMARK                            x       y       z     vdW  Elec       q    Type
REMARK                         _______ _______ _______ _____ _____    ______ ____
ROOT
ATOM      1  O   HOH     1      -6.612  15.796 -12.744  0.00  0.00    +0.000 OA
ENDROOT
TORSDOF 0
REMARK  Name = ../refined-set-2016/2fmb/2fmb_pocket.pdb
REMARK  206 active torsions:
REMARK  status: ('A' for Active; 'I' for Inactive)
REMARK    1  A    between atoms: _1  and  _3
REMARK    2  A    between atoms: _3  and  _4
REMARK    3  A    between atoms: _3  and  _6
REMARK    4  A    between atoms: _6  and  _7
REMARK    5  A    between atoms: _7  and  _8
REMARK    6  A    between atoms: _8  and  _9
REMARK    7  A    between atoms: _18  and  _20
REMARK    8  A    between atoms: _20  and  _21
REMARK    9  A    between atoms: _20  and  _23
REMARK   10  A    between atoms: _23  and  _24
REMARK   11  A    between atoms: _27  and  _29
REMARK   12  A    between atoms: _29  and  _30
REMARK   13  A    between atoms: _29  and  _32
REMARK   14  A    between atoms: _32  and  _33
REMARK   15  A    between atoms: _36  and  _38
REMARK   16  A    between atoms: _38  and  _39
REMARK   17  A    between atoms: _38  and  _41
REMARK   18  A    between atoms: _41  and  _42
REMARK   19  A    between atoms: _45  and  _47
REMARK   20  A    between atoms: _47  and  _48
REMARK   21  A    between atoms: _47  and  _50
REMARK   22  A    between atoms: _50  and  _51
REMARK   23  A    between atoms: _54  and  _56
REMARK   24  A    between atoms: _56  and  _57
REMARK   25  A    between atoms: _59  and  _61
REMARK   26  A    between atoms: _61  and  _62
REMARK   27  A    between atoms: _65  and  _67
REMARK   28  A    between atoms: _67  and  _68
REMARK   29  A    between atoms: _67  and  _70
REMARK   30  A    between atoms: _70  and  _71
REMARK   31  A    between atoms: _74  and  _76
REMARK   32  A    between atoms: _76  and  _77
REMARK   33  A    between atoms: _76  and  _79
REMARK   34  A    between atoms: _79  and  _80
REMARK   35  A    between atoms: _83  and  _85
REMARK   36  A    between atoms: _85  and  _86
REMARK   37  A    between atoms: _85  and  _88
REMARK   38  A    between atoms: _88  and  _89
REMARK   39  A    between atoms: _91  and  _93
REMARK   40  A    between atoms: _93  and  _94
REMARK   41  A    between atoms: _93  and  _96
REMARK   42  A    between atoms: _99  and  _101
REMARK   43  A    between atoms: _101  and  _102
REMARK   44  A    between atoms: _101  and  _104
REMARK   45  A    between atoms: _104  and  _105
REMARK   46  A    between atoms: _108  and  _110
REMARK   47  A    between atoms: _110  and  _111
REMARK   48  A    between atoms: _113  and  _115
REMARK   49  A    between atoms: _115  and  _116
REMARK   50  A    between atoms: _115  and  _118
REMARK   51  A    between atoms: _118  and  _119
REMARK   52  A    between atoms: _122  and  _124
REMARK   53  A    between atoms: _124  and  _125
REMARK   54  A    between atoms: _127  and  _129
REMARK   55  A    between atoms: _129  and  _130
REMARK   56  A    between atoms: _132  and  _134
REMARK   57  A    between atoms: _134  and  _135
REMARK   58  A    between atoms: _134  and  _137
REMARK   59  A    between atoms: _140  and  _142
REMARK   60  A    between atoms: _142  and  _143
REMARK   61  A    between atoms: _145  and  _147
REMARK   62  A    between atoms: _147  and  _148
REMARK   63  A    between atoms: _150  and  _152
REMARK   64  A    between atoms: _152  and  _153
REMARK   65  A    between atoms: _152  and  _155
REMARK   66  A    between atoms: _155  and  _156
REMARK   67  A    between atoms: _161  and  _163
REMARK   68  A    between atoms: _163  and  _164
REMARK   69  A    between atoms: _163  and  _166
REMARK   70  A    between atoms: _169  and  _171
REMARK   71  A    between atoms: _171  and  _172
REMARK   72  A    between atoms: _171  and  _174
REMARK   73  A    between atoms: _174  and  _175
REMARK   74  A    between atoms: _178  and  _180
REMARK   75  A    between atoms: _180  and  _181
REMARK   76  A    between atoms: _180  and  _183
REMARK   77  A    between atoms: _183  and  _184
REMARK   78  A    between atoms: _188  and  _189
REMARK   79  A    between atoms: _194  and  _196
REMARK   80  A    between atoms: _196  and  _197
REMARK   81  A    between atoms: _196  and  _199
REMARK   82  A    between atoms: _202  and  _204
REMARK   83  A    between atoms: _204  and  _205
REMARK   84  A    between atoms: _204  and  _207
REMARK   85  A    between atoms: _207  and  _208
REMARK   86  A    between atoms: _211  and  _213
REMARK   87  A    between atoms: _213  and  _214
REMARK   88  A    between atoms: _213  and  _216
REMARK   89  A    between atoms: _216  and  _217
REMARK   90  A    between atoms: _220  and  _222
REMARK   91  A    between atoms: _222  and  _223
REMARK   92  A    between atoms: _222  and  _225
REMARK   93  A    between atoms: _225  and  _226
REMARK   94  A    between atoms: _229  and  _231
REMARK   95  A    between atoms: _231  and  _232
REMARK   96  A    between atoms: _234  and  _236
REMARK   97  A    between atoms: _236  and  _237
REMARK   98  A    between atoms: _236  and  _239
REMARK   99  A    between atoms: _239  and  _240
REMARK  100  A    between atoms: _240  and  _241
REMARK  101  A    between atoms: _241  and  _242
REMARK  102  A    between atoms: _251  and  _253
REMARK  103  A    between atoms: _253  and  _254
REMARK  104  A    between atoms: _253  and  _256
REMARK  105  A    between atoms: _256  and  _257
REMARK  106  A    between atoms: _257  and  _258
REMARK  107  A    between atoms: _258  and  _259
REMARK  108  A    between atoms: _268  and  _270
REMARK  109  A    between atoms: _270  and  _271
REMARK  110  A    between atoms: _270  and  _273
REMARK  111  A    between atoms: _273  and  _274
REMARK  112  A    between atoms: _277  and  _279
REMARK  113  A    between atoms: _279  and  _280
REMARK  114  A    between atoms: _279  and  _282
REMARK  115  A    between atoms: _282  and  _283
REMARK  116  A    between atoms: _286  and  _288
REMARK  117  A    between atoms: _288  and  _289
REMARK  118  A    between atoms: _288  and  _291
REMARK  119  A    between atoms: _291  and  _292
REMARK  120  A    between atoms: _295  and  _297
REMARK  121  A    between atoms: _297  and  _298
REMARK  122  A    between atoms: _297  and  _300
REMARK  123  A    between atoms: _300  and  _301
REMARK  124  A    between atoms: _304  and  _306
REMARK  125  A    between atoms: _306  and  _307
REMARK  126  A    between atoms: _306  and  _309
REMARK  127  A    between atoms: _309  and  _310
REMARK  128  A    between atoms: _313  and  _315
REMARK  129  A    between atoms: _315  and  _316
REMARK  130  A    between atoms: _318  and  _320
REMARK  131  A    between atoms: _320  and  _321
REMARK  132  A    between atoms: _324  and  _326
REMARK  133  A    between atoms: _326  and  _327
REMARK  134  A    between atoms: _326  and  _329
REMARK  135  A    between atoms: _329  and  _330
REMARK  136  A    between atoms: _333  and  _335
REMARK  137  A    between atoms: _335  and  _336
REMARK  138  A    between atoms: _335  and  _338
REMARK  139  A    between atoms: _338  and  _339
REMARK  140  A    between atoms: _342  and  _344
REMARK  141  A    between atoms: _344  and  _345
REMARK  142  A    between atoms: _344  and  _347
REMARK  143  A    between atoms: _347  and  _348
REMARK  144  A    between atoms: _350  and  _352
REMARK  145  A    between atoms: _352  and  _353
REMARK  146  A    between atoms: _352  and  _355
REMARK  147  A    between atoms: _358  and  _360
REMARK  148  A    between atoms: _360  and  _361
REMARK  149  A    between atoms: _360  and  _363
REMARK  150  A    between atoms: _363  and  _364
REMARK  151  A    between atoms: _367  and  _369
REMARK  152  A    between atoms: _369  and  _370
REMARK  153  A    between atoms: _372  and  _374
REMARK  154  A    between atoms: _374  and  _375
REMARK  155  A    between atoms: _374  and  _377
REMARK  156  A    between atoms: _377  and  _378
REMARK  157  A    between atoms: _381  and  _383
REMARK  158  A    between atoms: _383  and  _384
REMARK  159  A    between atoms: _386  and  _388
REMARK  160  A    between atoms: _388  and  _389
REMARK  161  A    between atoms: _391  and  _393
REMARK  162  A    between atoms: _393  and  _394
REMARK  163  A    between atoms: _393  and  _396
REMARK  164  A    between atoms: _399  and  _401
REMARK  165  A    between atoms: _401  and  _402
REMARK  166  A    between atoms: _404  and  _406
REMARK  167  A    between atoms: _406  and  _407
REMARK  168  A    between atoms: _409  and  _411
REMARK  169  A    between atoms: _411  and  _412
REMARK  170  A    between atoms: _411  and  _414
REMARK  171  A    between atoms: _414  and  _415
REMARK  172  A    between atoms: _420  and  _422
REMARK  173  A    between atoms: _422  and  _423
REMARK  174  A    between atoms: _422  and  _425
REMARK  175  A    between atoms: _428  and  _430
REMARK  176  A    between atoms: _430  and  _431
REMARK  177  A    between atoms: _430  and  _433
REMARK  178  A    between atoms: _433  and  _434
REMARK  179  A    between atoms: _437  and  _439
REMARK  180  A    between atoms: _439  and  _440
REMARK  181  A    between atoms: _439  and  _442
REMARK  182  A    between atoms: _442  and  _443
REMARK  183  A    between atoms: _446  and  _448
REMARK  184  A    between atoms: _448  and  _449
REMARK  185  A    between atoms: _448  and  _451
REMARK  186  A    between atoms: _451  and  _452
REMARK  187  A    between atoms: _456  and  _457
REMARK  188  A    between atoms: _462  and  _464
REMARK  189  A    between atoms: _464  and  _465
REMARK  190  A    between atoms: _464  and  _467
REMARK  191  A    between atoms: _470  and  _472
REMARK  192  A    between atoms: _472  and  _473
REMARK  193  A    between atoms: _472  and  _475
REMARK  194  A    between atoms: _475  and  _476
REMARK  195  A    between atoms: _479  and  _481
REMARK  196  A    between atoms: _481  and  _482
REMARK  197  A    between atoms: _481  and  _484
REMARK  198  A    between atoms: _484  and  _485
REMARK  199  A    between atoms: _488  and  _490
REMARK  200  A    between atoms: _490  and  _491
REMARK  201  A    between atoms: _493  and  _495
REMARK  202  A    between atoms: _495  and  _496
REMARK  203  A    between atoms: _495  and  _498
REMARK  204  A    between atoms: _498  and  _499
REMARK  205  A    between atoms: _499  and  _500
REMARK  206  A    between atoms: _500  and  _501
REMARK                            x       y       z     vdW  Elec       q    Type
REMARK                         _______ _______ _______ _____ _____    ______ ____
ROOT
ATOM      1  O   HOH     1      12.656  20.585  -6.397  0.00  0.00    +0.000 OA
ENDROOT
TORSDOF 0
REMARK  Name = ../refined-set-2016/2fmb/2fmb_pocket.pdb
REMARK  206 active torsions:
REMARK  status: ('A' for Active; 'I' for Inactive)
REMARK    1  A    between atoms: _1  and  _3
REMARK    2  A    between atoms: _3  and  _4
REMARK    3  A    between atoms: _3  and  _6
REMARK    4  A    between atoms: _6  and  _7
REMARK    5  A    between atoms: _7  and  _8
REMARK    6  A    between atoms: _8  and  _9
REMARK    7  A    between atoms: _18  and  _20
REMARK    8  A    between atoms: _20  and  _21
REMARK    9  A    between atoms: _20  and  _23
REMARK   10  A    between atoms: _23  and  _24
REMARK   11  A    between atoms: _27  and  _29
REMARK   12  A    between atoms: _29  and  _30
REMARK   13  A    between atoms: _29  and  _32
REMARK   14  A    between atoms: _32  and  _33
REMARK   15  A    between atoms: _36  and  _38
REMARK   16  A    between atoms: _38  and  _39
REMARK   17  A    between atoms: _38  and  _41
REMARK   18  A    between atoms: _41  and  _42
REMARK   19  A    between atoms: _45  and  _47
REMARK   20  A    between atoms: _47  and  _48
REMARK   21  A    between atoms: _47  and  _50
REMARK   22  A    between atoms: _50  and  _51
REMARK   23  A    between atoms: _54  and  _56
REMARK   24  A    between atoms: _56  and  _57
REMARK   25  A    between atoms: _59  and  _61
REMARK   26  A    between atoms: _61  and  _62
REMARK   27  A    between atoms: _65  and  _67
REMARK   28  A    between atoms: _67  and  _68
REMARK   29  A    between atoms: _67  and  _70
REMARK   30  A    between atoms: _70  and  _71
REMARK   31  A    between atoms: _74  and  _76
REMARK   32  A    between atoms: _76  and  _77
REMARK   33  A    between atoms: _76  and  _79
REMARK   34  A    between atoms: _79  and  _80
REMARK   35  A    between atoms: _83  and  _85
REMARK   36  A    between atoms: _85  and  _86
REMARK   37  A    between atoms: _85  and  _88
REMARK   38  A    between atoms: _88  and  _89
REMARK   39  A    between atoms: _91  and  _93
REMARK   40  A    between atoms: _93  and  _94
REMARK   41  A    between atoms: _93  and  _96
REMARK   42  A    between atoms: _99  and  _101
REMARK   43  A    between atoms: _101  and  _102
REMARK   44  A    between atoms: _101  and  _104
REMARK   45  A    between atoms: _104  and  _105
REMARK   46  A    between atoms: _108  and  _110
REMARK   47  A    between atoms: _110  and  _111
REMARK   48  A    between atoms: _113  and  _115
REMARK   49  A    between atoms: _115  and  _116
REMARK   50  A    between atoms: _115  and  _118
REMARK   51  A    between atoms: _118  and  _119
REMARK   52  A    between atoms: _122  and  _124
REMARK   53  A    between atoms: _124  and  _125
REMARK   54  A    between atoms: _127  and  _129
REMARK   55  A    between atoms: _129  and  _130
REMARK   56  A    between atoms: _132  and  _134
REMARK   57  A    between atoms: _134  and  _135
REMARK   58  A    between atoms: _134  and  _137
REMARK   59  A    between atoms: _140  and  _142
REMARK   60  A    between atoms: _142  and  _143
REMARK   61  A    between atoms: _145  and  _147
REMARK   62  A    between atoms: _147  and  _148
REMARK   63  A    between atoms: _150  and  _152
REMARK   64  A    between atoms: _152  and  _153
REMARK   65  A    between atoms: _152  and  _155
REMARK   66  A    between atoms: _155  and  _156
REMARK   67  A    between atoms: _161  and  _163
REMARK   68  A    between atoms: _163  and  _164
REMARK   69  A    between atoms: _163  and  _166
REMARK   70  A    between atoms: _169  and  _171
REMARK   71  A    between atoms: _171  and  _172
REMARK   72  A    between atoms: _171  and  _174
REMARK   73  A    between atoms: _174  and  _175
REMARK   74  A    between atoms: _178  and  _180
REMARK   75  A    between atoms: _180  and  _181
REMARK   76  A    between atoms: _180  and  _183
REMARK   77  A    between atoms: _183  and  _184
REMARK   78  A    between atoms: _188  and  _189
REMARK   79  A    between atoms: _194  and  _196
REMARK   80  A    between atoms: _196  and  _197
REMARK   81  A    between atoms: _196  and  _199
REMARK   82  A    between atoms: _202  and  _204
REMARK   83  A    between atoms: _204  and  _205
REMARK   84  A    between atoms: _204  and  _207
REMARK   85  A    between atoms: _207  and  _208
REMARK   86  A    between atoms: _211  and  _213
REMARK   87  A    between atoms: _213  and  _214
REMARK   88  A    between atoms: _213  and  _216
REMARK   89  A    between atoms: _216  and  _217
REMARK   90  A    between atoms: _220  and  _222
REMARK   91  A    between atoms: _222  and  _223
REMARK   92  A    between atoms: _222  and  _225
REMARK   93  A    between atoms: _225  and  _226
REMARK   94  A    between atoms: _229  and  _231
REMARK   95  A    between atoms: _231  and  _232
REMARK   96  A    between atoms: _234  and  _236
REMARK   97  A    between atoms: _236  and  _237
REMARK   98  A    between atoms: _236  and  _239
REMARK   99  A    between atoms: _239  and  _240
REMARK  100  A    between atoms: _240  and  _241
REMARK  101  A    between atoms: _241  and  _242
REMARK  102  A    between atoms: _251  and  _253
REMARK  103  A    between atoms: _253  and  _254
REMARK  104  A    between atoms: _253  and  _256
REMARK  105  A    between atoms: _256  and  _257
REMARK  106  A    between atoms: _257  and  _258
REMARK  107  A    between atoms: _258  and  _259
REMARK  108  A    between atoms: _268  and  _270
REMARK  109  A    between atoms: _270  and  _271
REMARK  110  A    between atoms: _270  and  _273
REMARK  111  A    between atoms: _273  and  _274
REMARK  112  A    between atoms: _277  and  _279
REMARK  113  A    between atoms: _279  and  _280
REMARK  114  A    between atoms: _279  and  _282
REMARK  115  A    between atoms: _282  and  _283
REMARK  116  A    between atoms: _286  and  _288
REMARK  117  A    between atoms: _288  and  _289
REMARK  118  A    between atoms: _288  and  _291
REMARK  119  A    between atoms: _291  and  _292
REMARK  120  A    between atoms: _295  and  _297
REMARK  121  A    between atoms: _297  and  _298
REMARK  122  A    between atoms: _297  and  _300
REMARK  123  A    between atoms: _300  and  _301
REMARK  124  A    between atoms: _304  and  _306
REMARK  125  A    between atoms: _306  and  _307
REMARK  126  A    between atoms: _306  and  _309
REMARK  127  A    between atoms: _309  and  _310
REMARK  128  A    between atoms: _313  and  _315
REMARK  129  A    between atoms: _315  and  _316
REMARK  130  A    between atoms: _318  and  _320
REMARK  131  A    between atoms: _320  and  _321
REMARK  132  A    between atoms: _324  and  _326
REMARK  133  A    between atoms: _326  and  _327
REMARK  134  A    between atoms: _326  and  _329
REMARK  135  A    between atoms: _329  and  _330
REMARK  136  A    between atoms: _333  and  _335
REMARK  137  A    between atoms: _335  and  _336
REMARK  138  A    between atoms: _335  and  _338
REMARK  139  A    between atoms: _338  and  _339
REMARK  140  A    between atoms: _342  and  _344
REMARK  141  A    between atoms: _344  and  _345
REMARK  142  A    between atoms: _344  and  _347
REMARK  143  A    between atoms: _347  and  _348
REMARK  144  A    between atoms: _350  and  _352
REMARK  145  A    between atoms: _352  and  _353
REMARK  146  A    between atoms: _352  and  _355
REMARK  147  A    between atoms: _358  and  _360
REMARK  148  A    between atoms: _360  and  _361
REMARK  149  A    between atoms: _360  and  _363
REMARK  150  A    between atoms: _363  and  _364
REMARK  151  A    between atoms: _367  and  _369
REMARK  152  A    between atoms: _369  and  _370
REMARK  153  A    between atoms: _372  and  _374
REMARK  154  A    between atoms: _374  and  _375
REMARK  155  A    between atoms: _374  and  _377
REMARK  156  A    between atoms: _377  and  _378
REMARK  157  A    between atoms: _381  and  _383
REMARK  158  A    between atoms: _383  and  _384
REMARK  159  A    between atoms: _386  and  _388
REMARK  160  A    between atoms: _388  and  _389
REMARK  161  A    between atoms: _391  and  _393
REMARK  162  A    between atoms: _393  and  _394
REMARK  163  A    between atoms: _393  and  _396
REMARK  164  A    between atoms: _399  and  _401
REMARK  165  A    between atoms: _401  and  _402
REMARK  166  A    between atoms: _404  and  _406
REMARK  167  A    between atoms: _406  and  _407
REMARK  168  A    between atoms: _409  and  _411
REMARK  169  A    between atoms: _411  and  _412
REMARK  170  A    between atoms: _411  and  _414
REMARK  171  A    between atoms: _414  and  _415
REMARK  172  A    between atoms: _420  and  _422
REMARK  173  A    between atoms: _422  and  _423
REMARK  174  A    between atoms: _422  and  _425
REMARK  175  A    between atoms: _428  and  _430
REMARK  176  A    between atoms: _430  and  _431
REMARK  177  A    between atoms: _430  and  _433
REMARK  178  A    between atoms: _433  and  _434
REMARK  179  A    between atoms: _437  and  _439
REMARK  180  A    between atoms: _439  and  _440
REMARK  181  A    between atoms: _439  and  _442
REMARK  182  A    between atoms: _442  and  _443
REMARK  183  A    between atoms: _446  and  _448
REMARK  184  A    between atoms: _448  and  _449
REMARK  185  A    between atoms: _448  and  _451
REMARK  186  A    between atoms: _451  and  _452
REMARK  187  A    between atoms: _456  and  _457
REMARK  188  A    between atoms: _462  and  _464
REMARK  189  A    between atoms: _464  and  _465
REMARK  190  A    between atoms: _464  and  _467
REMARK  191  A    between atoms: _470  and  _472
REMARK  192  A    between atoms: _472  and  _473
REMARK  193  A    between atoms: _472  and  _475
REMARK  194  A    between atoms: _475  and  _476
REMARK  195  A    between atoms: _479  and  _481
REMARK  196  A    between atoms: _481  and  _482
REMARK  197  A    between atoms: _481  and  _484
REMARK  198  A    between atoms: _484  and  _485
REMARK  199  A    between atoms: _488  and  _490
REMARK  200  A    between atoms: _490  and  _491
REMARK  201  A    between atoms: _493  and  _495
REMARK  202  A    between atoms: _495  and  _496
REMARK  203  A    between atoms: _495  and  _498
REMARK  204  A    between atoms: _498  and  _499
REMARK  205  A    between atoms: _499  and  _500
REMARK  206  A    between atoms: _500  and  _501
REMARK                            x       y       z     vdW  Elec       q    Type
REMARK                         _______ _______ _______ _____ _____    ______ ____
ROOT
ATOM      1  O   HOH     1      15.381  15.766  -0.330  0.00  0.00    +0.000 OA
ENDROOT
TORSDOF 0
