REMARK  Name = ../refined-set-2016/3qx9/3qx9_pocket.pdb
REMARK  132 active torsions:
REMARK  status: ('A' for Active; 'I' for Inactive)
REMARK    1  A    between atoms: _1  and  _5
REMARK    2  A    between atoms: _5  and  _6
REMARK    3  A    between atoms: _5  and  _8
REMARK    4  A    between atoms: _8  and  _9
REMARK    5  A    between atoms: _9  and  _10
REMARK    6  A    between atoms: _10  and  _11
REMARK    7  A    between atoms: _11  and  _12
REMARK    8  A    between atoms: _16  and  _18
REMARK    9  A    between atoms: _18  and  _19
REMARK   10  A    between atoms: _18  and  _21
REMARK   11  A    between atoms: _21  and  _22
REMARK   12  A    between atoms: _25  and  _27
REMARK   13  A    between atoms: _27  and  _28
REMARK   14  A    between atoms: _27  and  _30
REMARK   15  A    between atoms: _33  and  _35
REMARK   16  A    between atoms: _35  and  _36
REMARK   17  A    between atoms: _35  and  _38
REMARK   18  A    between atoms: _41  and  _43
REMARK   19  A    between atoms: _43  and  _44
REMARK   20  A    between atoms: _43  and  _46
REMARK   21  A    between atoms: _46  and  _47
REMARK   22  A    between atoms: _51  and  _52
REMARK   23  A    between atoms: _57  and  _59
REMARK   24  A    between atoms: _59  and  _60
REMARK   25  A    between atoms: _62  and  _64
REMARK   26  A    between atoms: _64  and  _65
REMARK   27  A    between atoms: _64  and  _67
REMARK   28  A    between atoms: _67  and  _68
REMARK   29  A    between atoms: _68  and  _69
REMARK   30  A    between atoms: _69  and  _70
REMARK   31  A    between atoms: _70  and  _71
REMARK   32  A    between atoms: _75  and  _77
REMARK   33  A    between atoms: _77  and  _78
REMARK   34  A    between atoms: _77  and  _80
REMARK   35  A    between atoms: _80  and  _81
REMARK   36  A    between atoms: _85  and  _86
REMARK   37  A    between atoms: _91  and  _93
REMARK   38  A    between atoms: _93  and  _94
REMARK   39  A    between atoms: _93  and  _96
REMARK   40  A    between atoms: _99  and  _101
REMARK   41  A    between atoms: _101  and  _102
REMARK   42  A    between atoms: _101  and  _104
REMARK   43  A    between atoms: _104  and  _105
REMARK   44  A    between atoms: _110  and  _111
REMARK   45  A    between atoms: _113  and  _115
REMARK   46  A    between atoms: _115  and  _116
REMARK   47  A    between atoms: _119  and  _121
REMARK   48  A    between atoms: _121  and  _122
REMARK   49  A    between atoms: _121  and  _124
REMARK   50  A    between atoms: _124  and  _125
REMARK   51  A    between atoms: _125  and  _126
REMARK   52  A    between atoms: _129  and  _131
REMARK   53  A    between atoms: _131  and  _132
REMARK   54  A    between atoms: _131  and  _134
REMARK   55  A    between atoms: _137  and  _139
REMARK   56  A    between atoms: _139  and  _140
REMARK   57  A    between atoms: _139  and  _142
REMARK   58  A    between atoms: _142  and  _143
REMARK   59  A    between atoms: _143  and  _144
REMARK   60  A    between atoms: _144  and  _145
REMARK   61  A    between atoms: _145  and  _146
REMARK   62  A    between atoms: _150  and  _152
REMARK   63  A    between atoms: _152  and  _153
REMARK   64  A    between atoms: _152  and  _155
REMARK   65  A    between atoms: _155  and  _156
REMARK   66  A    between atoms: _159  and  _161
REMARK   67  A    between atoms: _161  and  _162
REMARK   68  A    between atoms: _165  and  _167
REMARK   69  A    between atoms: _167  and  _168
REMARK   70  A    between atoms: _167  and  _170
REMARK   71  A    between atoms: _170  and  _171
REMARK   72  A    between atoms: _174  and  _176
REMARK   73  A    between atoms: _176  and  _177
REMARK   74  A    between atoms: _176  and  _179
REMARK   75  A    between atoms: _179  and  _180
REMARK   76  A    between atoms: _180  and  _181
REMARK   77  A    between atoms: _186  and  _188
REMARK   78  A    between atoms: _188  and  _189
REMARK   79  A    between atoms: _188  and  _191
REMARK   80  A    between atoms: _193  and  _195
REMARK   81  A    between atoms: _195  and  _196
REMARK   82  A    between atoms: _195  and  _198
REMARK   83  A    between atoms: _201  and  _203
REMARK   84  A    between atoms: _203  and  _204
REMARK   85  A    between atoms: _203  and  _206
REMARK   86  A    between atoms: _206  and  _207
REMARK   87  A    between atoms: _207  and  _208
REMARK   88  A    between atoms: _213  and  _215
REMARK   89  A    between atoms: _215  and  _216
REMARK   90  A    between atoms: _215  and  _218
REMARK   91  A    between atoms: _218  and  _219
REMARK   92  A    between atoms: _219  and  _220
REMARK   93  A    between atoms: _222  and  _224
REMARK   94  A    between atoms: _224  and  _225
REMARK   95  A    between atoms: _224  and  _227
REMARK   96  A    between atoms: _227  and  _228
REMARK   97  A    between atoms: _228  and  _229
REMARK   98  A    between atoms: _229  and  _230
REMARK   99  A    between atoms: _230  and  _231
REMARK  100  A    between atoms: _235  and  _237
REMARK  101  A    between atoms: _237  and  _238
REMARK  102  A    between atoms: _237  and  _240
REMARK  103  A    between atoms: _240  and  _241
REMARK  104  A    between atoms: _246  and  _248
REMARK  105  A    between atoms: _248  and  _249
REMARK  106  A    between atoms: _248  and  _251
REMARK  107  A    between atoms: _251  and  _252
REMARK  108  A    between atoms: _257  and  _259
REMARK  109  A    between atoms: _259  and  _260
REMARK  110  A    between atoms: _259  and  _262
REMARK  111  A    between atoms: _262  and  _263
REMARK  112  A    between atoms: _266  and  _268
REMARK  113  A    between atoms: _268  and  _269
REMARK  114  A    between atoms: _268  and  _271
REMARK  115  A    between atoms: _271  and  _272
REMARK  116  A    between atoms: _272  and  _273
REMARK  117  A    between atoms: _273  and  _274
REMARK  118  A    between atoms: _274  and  _275
REMARK  119  A    between atoms: _279  and  _281
REMARK  120  A    between atoms: _281  and  _282
REMARK  121  A    between atoms: _281  and  _284
REMARK  122  A    between atoms: _284  and  _285
REMARK  123  A    between atoms: _288  and  _290
REMARK  124  A    between atoms: _290  and  _291
REMARK  125  A    between atoms: _290  and  _293
REMARK  126  A    between atoms: _296  and  _298
REMARK  127  A    between atoms: _298  and  _299
REMARK  128  A    between atoms: _298  and  _301
REMARK  129  A    between atoms: _301  and  _302
REMARK  130  A    between atoms: _302  and  _303
REMARK  131  A    between atoms: _303  and  _304
REMARK  132  A    between atoms: _304  and  _305
REMARK                            x       y       z     vdW  Elec       q    Type
REMARK                         _______ _______ _______ _____ _____    ______ ____
ROOT
ATOM      1  CB  LYS A   1      11.967  10.222 -32.419  0.00  0.00    -0.014 C 
ENDROOT
BRANCH   1   2
ATOM      2  CA  LYS A   1      11.114  11.401 -32.916  0.00  0.00    +0.001 C 
BRANCH   2   3
ATOM      3  N   LYS A   1      11.355  12.619 -32.143  0.00  0.00    +0.387 N 
ATOM      4  H1  LYS A   1      11.107  12.451 -31.147  0.00  0.00    -0.089 HD
ATOM      5  H2  LYS A   1      12.360  12.879 -32.213  0.00  0.00    -0.089 HD
ATOM      6  H3  LYS A   1      10.769  13.390 -32.522  0.00  0.00    -0.089 HD
ENDBRANCH   2   3
BRANCH   2   7
ATOM      7  C   LYS A   1       9.641  11.037 -32.802  0.00  0.00    +0.185 C 
ATOM      8  O   LYS A   1       8.964  11.439 -31.849  0.00  0.00    -0.291 OA
ENDBRANCH   2   7
ENDBRANCH   1   2
BRANCH   1   9
ATOM      9  CG  LYS A   1      13.460  10.329 -32.682  0.00  0.00    -0.004 C 
BRANCH   9  10
ATOM     10  CD  LYS A   1      14.122  11.252 -31.629  0.00  0.00    -0.024 C 
BRANCH  10  11
ATOM     11  CE  LYS A   1      15.640  11.246 -31.754  0.00  0.00    -0.086 C 
BRANCH  11  12
ATOM     12  NZ  LYS A   1      16.168   9.890 -31.453  0.00  0.00    +0.380 N 
ATOM     13  HZ1 LYS A   1      15.902   9.623 -30.484  0.00  0.00    -0.089 HD
ATOM     14  HZ2 LYS A   1      17.204   9.895 -31.541  0.00  0.00    -0.089 HD
ATOM     15  HZ3 LYS A   1      15.766   9.206 -32.125  0.00  0.00    -0.089 HD
ENDBRANCH  11  12
ENDBRANCH  10  11
ENDBRANCH   9  10
ENDBRANCH   1   9
TORSDOF 7
REMARK  Name = ../refined-set-2016/3qx9/3qx9_pocket.pdb
REMARK  132 active torsions:
REMARK  status: ('A' for Active; 'I' for Inactive)
REMARK    1  A    between atoms: _1  and  _5
REMARK    2  A    between atoms: _5  and  _6
REMARK    3  A    between atoms: _5  and  _8
REMARK    4  A    between atoms: _8  and  _9
REMARK    5  A    between atoms: _9  and  _10
REMARK    6  A    between atoms: _10  and  _11
REMARK    7  A    between atoms: _11  and  _12
REMARK    8  A    between atoms: _16  and  _18
REMARK    9  A    between atoms: _18  and  _19
REMARK   10  A    between atoms: _18  and  _21
REMARK   11  A    between atoms: _21  and  _22
REMARK   12  A    between atoms: _25  and  _27
REMARK   13  A    between atoms: _27  and  _28
REMARK   14  A    between atoms: _27  and  _30
REMARK   15  A    between atoms: _33  and  _35
REMARK   16  A    between atoms: _35  and  _36
REMARK   17  A    between atoms: _35  and  _38
REMARK   18  A    between atoms: _41  and  _43
REMARK   19  A    between atoms: _43  and  _44
REMARK   20  A    between atoms: _43  and  _46
REMARK   21  A    between atoms: _46  and  _47
REMARK   22  A    between atoms: _51  and  _52
REMARK   23  A    between atoms: _57  and  _59
REMARK   24  A    between atoms: _59  and  _60
REMARK   25  A    between atoms: _62  and  _64
REMARK   26  A    between atoms: _64  and  _65
REMARK   27  A    between atoms: _64  and  _67
REMARK   28  A    between atoms: _67  and  _68
REMARK   29  A    between atoms: _68  and  _69
REMARK   30  A    between atoms: _69  and  _70
REMARK   31  A    between atoms: _70  and  _71
REMARK   32  A    between atoms: _75  and  _77
REMARK   33  A    between atoms: _77  and  _78
REMARK   34  A    between atoms: _77  and  _80
REMARK   35  A    between atoms: _80  and  _81
REMARK   36  A    between atoms: _85  and  _86
REMARK   37  A    between atoms: _91  and  _93
REMARK   38  A    between atoms: _93  and  _94
REMARK   39  A    between atoms: _93  and  _96
REMARK   40  A    between atoms: _99  and  _101
REMARK   41  A    between atoms: _101  and  _102
REMARK   42  A    between atoms: _101  and  _104
REMARK   43  A    between atoms: _104  and  _105
REMARK   44  A    between atoms: _110  and  _111
REMARK   45  A    between atoms: _113  and  _115
REMARK   46  A    between atoms: _115  and  _116
REMARK   47  A    between atoms: _119  and  _121
REMARK   48  A    between atoms: _121  and  _122
REMARK   49  A    between atoms: _121  and  _124
REMARK   50  A    between atoms: _124  and  _125
REMARK   51  A    between atoms: _125  and  _126
REMARK   52  A    between atoms: _129  and  _131
REMARK   53  A    between atoms: _131  and  _132
REMARK   54  A    between atoms: _131  and  _134
REMARK   55  A    between atoms: _137  and  _139
REMARK   56  A    between atoms: _139  and  _140
REMARK   57  A    between atoms: _139  and  _142
REMARK   58  A    between atoms: _142  and  _143
REMARK   59  A    between atoms: _143  and  _144
REMARK   60  A    between atoms: _144  and  _145
REMARK   61  A    between atoms: _145  and  _146
REMARK   62  A    between atoms: _150  and  _152
REMARK   63  A    between atoms: _152  and  _153
REMARK   64  A    between atoms: _152  and  _155
REMARK   65  A    between atoms: _155  and  _156
REMARK   66  A    between atoms: _159  and  _161
REMARK   67  A    between atoms: _161  and  _162
REMARK   68  A    between atoms: _165  and  _167
REMARK   69  A    between atoms: _167  and  _168
REMARK   70  A    between atoms: _167  and  _170
REMARK   71  A    between atoms: _170  and  _171
REMARK   72  A    between atoms: _174  and  _176
REMARK   73  A    between atoms: _176  and  _177
REMARK   74  A    between atoms: _176  and  _179
REMARK   75  A    between atoms: _179  and  _180
REMARK   76  A    between atoms: _180  and  _181
REMARK   77  A    between atoms: _186  and  _188
REMARK   78  A    between atoms: _188  and  _189
REMARK   79  A    between atoms: _188  and  _191
REMARK   80  A    between atoms: _193  and  _195
REMARK   81  A    between atoms: _195  and  _196
REMARK   82  A    between atoms: _195  and  _198
REMARK   83  A    between atoms: _201  and  _203
REMARK   84  A    between atoms: _203  and  _204
REMARK   85  A    between atoms: _203  and  _206
REMARK   86  A    between atoms: _206  and  _207
REMARK   87  A    between atoms: _207  and  _208
REMARK   88  A    between atoms: _213  and  _215
REMARK   89  A    between atoms: _215  and  _216
REMARK   90  A    between atoms: _215  and  _218
REMARK   91  A    between atoms: _218  and  _219
REMARK   92  A    between atoms: _219  and  _220
REMARK   93  A    between atoms: _222  and  _224
REMARK   94  A    between atoms: _224  and  _225
REMARK   95  A    between atoms: _224  and  _227
REMARK   96  A    between atoms: _227  and  _228
REMARK   97  A    between atoms: _228  and  _229
REMARK   98  A    between atoms: _229  and  _230
REMARK   99  A    between atoms: _230  and  _231
REMARK  100  A    between atoms: _235  and  _237
REMARK  101  A    between atoms: _237  and  _238
REMARK  102  A    between atoms: _237  and  _240
REMARK  103  A    between atoms: _240  and  _241
REMARK  104  A    between atoms: _246  and  _248
REMARK  105  A    between atoms: _248  and  _249
REMARK  106  A    between atoms: _248  and  _251
REMARK  107  A    between atoms: _251  and  _252
REMARK  108  A    between atoms: _257  and  _259
REMARK  109  A    between atoms: _259  and  _260
REMARK  110  A    between atoms: _259  and  _262
REMARK  111  A    between atoms: _262  and  _263
REMARK  112  A    between atoms: _266  and  _268
REMARK  113  A    between atoms: _268  and  _269
REMARK  114  A    between atoms: _268  and  _271
REMARK  115  A    between atoms: _271  and  _272
REMARK  116  A    between atoms: _272  and  _273
REMARK  117  A    between atoms: _273  and  _274
REMARK  118  A    between atoms: _274  and  _275
REMARK  119  A    between atoms: _279  and  _281
REMARK  120  A    between atoms: _281  and  _282
REMARK  121  A    between atoms: _281  and  _284
REMARK  122  A    between atoms: _284  and  _285
REMARK  123  A    between atoms: _288  and  _290
REMARK  124  A    between atoms: _290  and  _291
REMARK  125  A    between atoms: _290  and  _293
REMARK  126  A    between atoms: _296  and  _298
REMARK  127  A    between atoms: _298  and  _299
REMARK  128  A    between atoms: _298  and  _301
REMARK  129  A    between atoms: _301  and  _302
REMARK  130  A    between atoms: _302  and  _303
REMARK  131  A    between atoms: _303  and  _304
REMARK  132  A    between atoms: _304  and  _305
REMARK                            x       y       z     vdW  Elec       q    Type
REMARK                         _______ _______ _______ _____ _____    ______ ____
ROOT
ATOM      1  C   LEU A   1      16.458  -4.089 -19.734  0.00  0.00    +0.238 C 
ATOM      2  O   LEU A   1      15.891  -4.916 -19.025  0.00  0.00    -0.274 OA
ATOM      3  N   VAL A   2      17.462  -3.347 -19.311  0.00  0.00    -0.298 N 
ATOM      4  H   VAL A   2      18.117  -2.947 -20.013  0.00  0.00    +0.150 HD
ENDROOT
BRANCH   1   5
ATOM      5  CA  LEU A   1      16.035  -3.906 -21.182  0.00  0.00    +0.145 C 
BRANCH   5   6
ATOM      6  N   LEU A   1      15.921  -5.210 -21.840  0.00  0.00    -0.238 NA
ATOM      7  H   LEU A   1      15.943  -6.072 -21.259  0.00  0.00    +0.142 HD
ENDBRANCH   5   6
BRANCH   5   8
ATOM      8  CB  LEU A   1      14.719  -3.090 -21.260  0.00  0.00    +0.026 C 
BRANCH   8   9
ATOM      9  CG  LEU A   1      14.813  -1.656 -20.694  0.00  0.00    +0.002 C 
ATOM     10  CD2 LEU A   1      13.410  -1.105 -20.598  0.00  0.00    +0.000 C 
ATOM     11  CD1 LEU A   1      15.707  -0.749 -21.544  0.00  0.00    +0.000 C 
ENDBRANCH   8   9
ENDBRANCH   5   8
ENDBRANCH   1   5
BRANCH   3  12
ATOM     12  CA  VAL A   2      17.690  -3.065 -17.903  0.00  0.00    +0.137 C 
BRANCH  12  13
ATOM     13  CB  VAL A   2      19.126  -3.435 -17.431  0.00  0.00    +0.026 C 
ATOM     14  CG2 VAL A   2      19.241  -3.319 -15.934  0.00  0.00    +0.002 C 
ATOM     15  CG1 VAL A   2      19.538  -4.837 -17.894  0.00  0.00    +0.002 C 
ENDBRANCH  12  13
BRANCH  12  16
ATOM     16  C   VAL A   2      17.374  -1.629 -17.530  0.00  0.00    +0.227 C 
ATOM     17  O   VAL A   2      17.910  -0.673 -18.075  0.00  0.00    -0.286 OA
ENDBRANCH  12  16
ENDBRANCH   3  12
TORSDOF 7
REMARK  Name = ../refined-set-2016/3qx9/3qx9_pocket.pdb
REMARK  132 active torsions:
REMARK  status: ('A' for Active; 'I' for Inactive)
REMARK    1  A    between atoms: _1  and  _5
REMARK    2  A    between atoms: _5  and  _6
REMARK    3  A    between atoms: _5  and  _8
REMARK    4  A    between atoms: _8  and  _9
REMARK    5  A    between atoms: _9  and  _10
REMARK    6  A    between atoms: _10  and  _11
REMARK    7  A    between atoms: _11  and  _12
REMARK    8  A    between atoms: _16  and  _18
REMARK    9  A    between atoms: _18  and  _19
REMARK   10  A    between atoms: _18  and  _21
REMARK   11  A    between atoms: _21  and  _22
REMARK   12  A    between atoms: _25  and  _27
REMARK   13  A    between atoms: _27  and  _28
REMARK   14  A    between atoms: _27  and  _30
REMARK   15  A    between atoms: _33  and  _35
REMARK   16  A    between atoms: _35  and  _36
REMARK   17  A    between atoms: _35  and  _38
REMARK   18  A    between atoms: _41  and  _43
REMARK   19  A    between atoms: _43  and  _44
REMARK   20  A    between atoms: _43  and  _46
REMARK   21  A    between atoms: _46  and  _47
REMARK   22  A    between atoms: _51  and  _52
REMARK   23  A    between atoms: _57  and  _59
REMARK   24  A    between atoms: _59  and  _60
REMARK   25  A    between atoms: _62  and  _64
REMARK   26  A    between atoms: _64  and  _65
REMARK   27  A    between atoms: _64  and  _67
REMARK   28  A    between atoms: _67  and  _68
REMARK   29  A    between atoms: _68  and  _69
REMARK   30  A    between atoms: _69  and  _70
REMARK   31  A    between atoms: _70  and  _71
REMARK   32  A    between atoms: _75  and  _77
REMARK   33  A    between atoms: _77  and  _78
REMARK   34  A    between atoms: _77  and  _80
REMARK   35  A    between atoms: _80  and  _81
REMARK   36  A    between atoms: _85  and  _86
REMARK   37  A    between atoms: _91  and  _93
REMARK   38  A    between atoms: _93  and  _94
REMARK   39  A    between atoms: _93  and  _96
REMARK   40  A    between atoms: _99  and  _101
REMARK   41  A    between atoms: _101  and  _102
REMARK   42  A    between atoms: _101  and  _104
REMARK   43  A    between atoms: _104  and  _105
REMARK   44  A    between atoms: _110  and  _111
REMARK   45  A    between atoms: _113  and  _115
REMARK   46  A    between atoms: _115  and  _116
REMARK   47  A    between atoms: _119  and  _121
REMARK   48  A    between atoms: _121  and  _122
REMARK   49  A    between atoms: _121  and  _124
REMARK   50  A    between atoms: _124  and  _125
REMARK   51  A    between atoms: _125  and  _126
REMARK   52  A    between atoms: _129  and  _131
REMARK   53  A    between atoms: _131  and  _132
REMARK   54  A    between atoms: _131  and  _134
REMARK   55  A    between atoms: _137  and  _139
REMARK   56  A    between atoms: _139  and  _140
REMARK   57  A    between atoms: _139  and  _142
REMARK   58  A    between atoms: _142  and  _143
REMARK   59  A    between atoms: _143  and  _144
REMARK   60  A    between atoms: _144  and  _145
REMARK   61  A    between atoms: _145  and  _146
REMARK   62  A    between atoms: _150  and  _152
REMARK   63  A    between atoms: _152  and  _153
REMARK   64  A    between atoms: _152  and  _155
REMARK   65  A    between atoms: _155  and  _156
REMARK   66  A    between atoms: _159  and  _161
REMARK   67  A    between atoms: _161  and  _162
REMARK   68  A    between atoms: _165  and  _167
REMARK   69  A    between atoms: _167  and  _168
REMARK   70  A    between atoms: _167  and  _170
REMARK   71  A    between atoms: _170  and  _171
REMARK   72  A    between atoms: _174  and  _176
REMARK   73  A    between atoms: _176  and  _177
REMARK   74  A    between atoms: _176  and  _179
REMARK   75  A    between atoms: _179  and  _180
REMARK   76  A    between atoms: _180  and  _181
REMARK   77  A    between atoms: _186  and  _188
REMARK   78  A    between atoms: _188  and  _189
REMARK   79  A    between atoms: _188  and  _191
REMARK   80  A    between atoms: _193  and  _195
REMARK   81  A    between atoms: _195  and  _196
REMARK   82  A    between atoms: _195  and  _198
REMARK   83  A    between atoms: _201  and  _203
REMARK   84  A    between atoms: _203  and  _204
REMARK   85  A    between atoms: _203  and  _206
REMARK   86  A    between atoms: _206  and  _207
REMARK   87  A    between atoms: _207  and  _208
REMARK   88  A    between atoms: _213  and  _215
REMARK   89  A    between atoms: _215  and  _216
REMARK   90  A    between atoms: _215  and  _218
REMARK   91  A    between atoms: _218  and  _219
REMARK   92  A    between atoms: _219  and  _220
REMARK   93  A    between atoms: _222  and  _224
REMARK   94  A    between atoms: _224  and  _225
REMARK   95  A    between atoms: _224  and  _227
REMARK   96  A    between atoms: _227  and  _228
REMARK   97  A    between atoms: _228  and  _229
REMARK   98  A    between atoms: _229  and  _230
REMARK   99  A    between atoms: _230  and  _231
REMARK  100  A    between atoms: _235  and  _237
REMARK  101  A    between atoms: _237  and  _238
REMARK  102  A    between atoms: _237  and  _240
REMARK  103  A    between atoms: _240  and  _241
REMARK  104  A    between atoms: _246  and  _248
REMARK  105  A    between atoms: _248  and  _249
REMARK  106  A    between atoms: _248  and  _251
REMARK  107  A    between atoms: _251  and  _252
REMARK  108  A    between atoms: _257  and  _259
REMARK  109  A    between atoms: _259  and  _260
REMARK  110  A    between atoms: _259  and  _262
REMARK  111  A    between atoms: _262  and  _263
REMARK  112  A    between atoms: _266  and  _268
REMARK  113  A    between atoms: _268  and  _269
REMARK  114  A    between atoms: _268  and  _271
REMARK  115  A    between atoms: _271  and  _272
REMARK  116  A    between atoms: _272  and  _273
REMARK  117  A    between atoms: _273  and  _274
REMARK  118  A    between atoms: _274  and  _275
REMARK  119  A    between atoms: _279  and  _281
REMARK  120  A    between atoms: _281  and  _282
REMARK  121  A    between atoms: _281  and  _284
REMARK  122  A    between atoms: _284  and  _285
REMARK  123  A    between atoms: _288  and  _290
REMARK  124  A    between atoms: _290  and  _291
REMARK  125  A    between atoms: _290  and  _293
REMARK  126  A    between atoms: _296  and  _298
REMARK  127  A    between atoms: _298  and  _299
REMARK  128  A    between atoms: _298  and  _301
REMARK  129  A    between atoms: _301  and  _302
REMARK  130  A    between atoms: _302  and  _303
REMARK  131  A    between atoms: _303  and  _304
REMARK  132  A    between atoms: _304  and  _305
REMARK                            x       y       z     vdW  Elec       q    Type
REMARK                         _______ _______ _______ _____ _____    ______ ____
ROOT
ATOM      1  CA  VAL A   1      18.657   1.210 -13.647  0.00  0.00    +0.133 C 
ENDROOT
BRANCH   1   2
ATOM      2  CB  VAL A   1      20.040   1.393 -14.207  0.00  0.00    +0.023 C 
ATOM      3  CG2 VAL A   1      20.999   1.461 -13.033  0.00  0.00    +0.002 C 
ATOM      4  CG1 VAL A   1      20.416   0.274 -15.169  0.00  0.00    +0.002 C 
ENDBRANCH   1   2
BRANCH   1   5
ATOM      5  N   VAL A   1      17.667   1.044 -14.676  0.00  0.00    -0.239 NA
ATOM      6  H   VAL A   1      17.528   1.779 -15.398  0.00  0.00    +0.142 HD
ENDBRANCH   1   5
BRANCH   1   7
ATOM      7  C   VAL A   1      18.311   2.416 -12.795  0.00  0.00    +0.224 C 
ATOM      8  O   VAL A   1      18.205   3.524 -13.294  0.00  0.00    -0.287 OA
ENDBRANCH   1   7
TORSDOF 3
REMARK  Name = ../refined-set-2016/3qx9/3qx9_pocket.pdb
REMARK  132 active torsions:
REMARK  status: ('A' for Active; 'I' for Inactive)
REMARK    1  A    between atoms: _1  and  _5
REMARK    2  A    between atoms: _5  and  _6
REMARK    3  A    between atoms: _5  and  _8
REMARK    4  A    between atoms: _8  and  _9
REMARK    5  A    between atoms: _9  and  _10
REMARK    6  A    between atoms: _10  and  _11
REMARK    7  A    between atoms: _11  and  _12
REMARK    8  A    between atoms: _16  and  _18
REMARK    9  A    between atoms: _18  and  _19
REMARK   10  A    between atoms: _18  and  _21
REMARK   11  A    between atoms: _21  and  _22
REMARK   12  A    between atoms: _25  and  _27
REMARK   13  A    between atoms: _27  and  _28
REMARK   14  A    between atoms: _27  and  _30
REMARK   15  A    between atoms: _33  and  _35
REMARK   16  A    between atoms: _35  and  _36
REMARK   17  A    between atoms: _35  and  _38
REMARK   18  A    between atoms: _41  and  _43
REMARK   19  A    between atoms: _43  and  _44
REMARK   20  A    between atoms: _43  and  _46
REMARK   21  A    between atoms: _46  and  _47
REMARK   22  A    between atoms: _51  and  _52
REMARK   23  A    between atoms: _57  and  _59
REMARK   24  A    between atoms: _59  and  _60
REMARK   25  A    between atoms: _62  and  _64
REMARK   26  A    between atoms: _64  and  _65
REMARK   27  A    between atoms: _64  and  _67
REMARK   28  A    between atoms: _67  and  _68
REMARK   29  A    between atoms: _68  and  _69
REMARK   30  A    between atoms: _69  and  _70
REMARK   31  A    between atoms: _70  and  _71
REMARK   32  A    between atoms: _75  and  _77
REMARK   33  A    between atoms: _77  and  _78
REMARK   34  A    between atoms: _77  and  _80
REMARK   35  A    between atoms: _80  and  _81
REMARK   36  A    between atoms: _85  and  _86
REMARK   37  A    between atoms: _91  and  _93
REMARK   38  A    between atoms: _93  and  _94
REMARK   39  A    between atoms: _93  and  _96
REMARK   40  A    between atoms: _99  and  _101
REMARK   41  A    between atoms: _101  and  _102
REMARK   42  A    between atoms: _101  and  _104
REMARK   43  A    between atoms: _104  and  _105
REMARK   44  A    between atoms: _110  and  _111
REMARK   45  A    between atoms: _113  and  _115
REMARK   46  A    between atoms: _115  and  _116
REMARK   47  A    between atoms: _119  and  _121
REMARK   48  A    between atoms: _121  and  _122
REMARK   49  A    between atoms: _121  and  _124
REMARK   50  A    between atoms: _124  and  _125
REMARK   51  A    between atoms: _125  and  _126
REMARK   52  A    between atoms: _129  and  _131
REMARK   53  A    between atoms: _131  and  _132
REMARK   54  A    between atoms: _131  and  _134
REMARK   55  A    between atoms: _137  and  _139
REMARK   56  A    between atoms: _139  and  _140
REMARK   57  A    between atoms: _139  and  _142
REMARK   58  A    between atoms: _142  and  _143
REMARK   59  A    between atoms: _143  and  _144
REMARK   60  A    between atoms: _144  and  _145
REMARK   61  A    between atoms: _145  and  _146
REMARK   62  A    between atoms: _150  and  _152
REMARK   63  A    between atoms: _152  and  _153
REMARK   64  A    between atoms: _152  and  _155
REMARK   65  A    between atoms: _155  and  _156
REMARK   66  A    between atoms: _159  and  _161
REMARK   67  A    between atoms: _161  and  _162
REMARK   68  A    between atoms: _165  and  _167
REMARK   69  A    between atoms: _167  and  _168
REMARK   70  A    between atoms: _167  and  _170
REMARK   71  A    between atoms: _170  and  _171
REMARK   72  A    between atoms: _174  and  _176
REMARK   73  A    between atoms: _176  and  _177
REMARK   74  A    between atoms: _176  and  _179
REMARK   75  A    between atoms: _179  and  _180
REMARK   76  A    between atoms: _180  and  _181
REMARK   77  A    between atoms: _186  and  _188
REMARK   78  A    between atoms: _188  and  _189
REMARK   79  A    between atoms: _188  and  _191
REMARK   80  A    between atoms: _193  and  _195
REMARK   81  A    between atoms: _195  and  _196
REMARK   82  A    between atoms: _195  and  _198
REMARK   83  A    between atoms: _201  and  _203
REMARK   84  A    between atoms: _203  and  _204
REMARK   85  A    between atoms: _203  and  _206
REMARK   86  A    between atoms: _206  and  _207
REMARK   87  A    between atoms: _207  and  _208
REMARK   88  A    between atoms: _213  and  _215
REMARK   89  A    between atoms: _215  and  _216
REMARK   90  A    between atoms: _215  and  _218
REMARK   91  A    between atoms: _218  and  _219
REMARK   92  A    between atoms: _219  and  _220
REMARK   93  A    between atoms: _222  and  _224
REMARK   94  A    between atoms: _224  and  _225
REMARK   95  A    between atoms: _224  and  _227
REMARK   96  A    between atoms: _227  and  _228
REMARK   97  A    between atoms: _228  and  _229
REMARK   98  A    between atoms: _229  and  _230
REMARK   99  A    between atoms: _230  and  _231
REMARK  100  A    between atoms: _235  and  _237
REMARK  101  A    between atoms: _237  and  _238
REMARK  102  A    between atoms: _237  and  _240
REMARK  103  A    between atoms: _240  and  _241
REMARK  104  A    between atoms: _246  and  _248
REMARK  105  A    between atoms: _248  and  _249
REMARK  106  A    between atoms: _248  and  _251
REMARK  107  A    between atoms: _251  and  _252
REMARK  108  A    between atoms: _257  and  _259
REMARK  109  A    between atoms: _259  and  _260
REMARK  110  A    between atoms: _259  and  _262
REMARK  111  A    between atoms: _262  and  _263
REMARK  112  A    between atoms: _266  and  _268
REMARK  113  A    between atoms: _268  and  _269
REMARK  114  A    between atoms: _268  and  _271
REMARK  115  A    between atoms: _271  and  _272
REMARK  116  A    between atoms: _272  and  _273
REMARK  117  A    between atoms: _273  and  _274
REMARK  118  A    between atoms: _274  and  _275
REMARK  119  A    between atoms: _279  and  _281
REMARK  120  A    between atoms: _281  and  _282
REMARK  121  A    between atoms: _281  and  _284
REMARK  122  A    between atoms: _284  and  _285
REMARK  123  A    between atoms: _288  and  _290
REMARK  124  A    between atoms: _290  and  _291
REMARK  125  A    between atoms: _290  and  _293
REMARK  126  A    between atoms: _296  and  _298
REMARK  127  A    between atoms: _298  and  _299
REMARK  128  A    between atoms: _298  and  _301
REMARK  129  A    between atoms: _301  and  _302
REMARK  130  A    between atoms: _302  and  _303
REMARK  131  A    between atoms: _303  and  _304
REMARK  132  A    between atoms: _304  and  _305
REMARK                            x       y       z     vdW  Elec       q    Type
REMARK                         _______ _______ _______ _____ _____    ______ ____
ROOT
ATOM      1  CA  VAL A   7      27.308   4.488 -11.705  0.00  0.00    +0.149 C 
ENDROOT
BRANCH   1   2
ATOM      2  C   VAL A   7      26.744   4.731 -13.135  0.00  0.00    +0.241 C 
ATOM      3  N   TYR A   8      26.248   5.940 -13.425  0.00  0.00    -0.297 N 
ATOM      4  H   TYR A   8      26.282   6.690 -12.705  0.00  0.00    +0.150 HD
ATOM      5  O   VAL A   7      26.803   3.833 -13.971  0.00  0.00    -0.273 OA
BRANCH   3   6
ATOM      6  CA  TYR A   8      25.661   6.229 -14.730  0.00  0.00    +0.153 C 
BRANCH   6   7
ATOM      7  C   TYR A   8      26.617   5.888 -15.891  0.00  0.00    +0.241 C 
ATOM      8  N   ALA A   9      27.812   6.487 -15.868  0.00  0.00    -0.297 N 
ATOM      9  H   ALA A   9      28.010   7.165 -15.105  0.00  0.00    +0.150 HD
ATOM     10  O   TYR A   8      26.275   5.128 -16.785  0.00  0.00    -0.273 OA
BRANCH   8  11
ATOM     11  CA  ALA A   9      28.848   6.238 -16.857  0.00  0.00    +0.149 C 
ATOM     12  CB  ALA A   9      30.111   7.059 -16.504  0.00  0.00    +0.031 C 
BRANCH  11  13
ATOM     13  C   ALA A   9      29.214   4.753 -17.016  0.00  0.00    +0.241 C 
ATOM     14  N   GLU A  10      29.294   4.040 -15.894  0.00  0.00    -0.297 N 
ATOM     15  H   GLU A  10      29.108   4.499 -14.980  0.00  0.00    +0.150 HD
ATOM     16  O   ALA A   9      29.448   4.283 -18.130  0.00  0.00    -0.273 OA
BRANCH  14  17
ATOM     17  CA  GLU A  10      29.640   2.621 -15.931  0.00  0.00    +0.149 C 
BRANCH  17  18
ATOM     18  C   GLU A  10      28.596   1.716 -16.609  0.00  0.00    +0.241 C 
ATOM     19  N   VAL A  11      27.337   1.887 -16.201  0.00  0.00    -0.297 N 
ATOM     20  H   VAL A  11      27.183   2.468 -15.352  0.00  0.00    +0.150 HD
ATOM     21  O   GLU A  10      28.942   0.872 -17.451  0.00  0.00    -0.273 OA
BRANCH  19  22
ATOM     22  CA  VAL A  11      26.151   1.320 -16.856  0.00  0.00    +0.149 C 
BRANCH  22  23
ATOM     23  C   VAL A  11      26.191   1.539 -18.376  0.00  0.00    +0.241 C 
ATOM     24  N   LYS A  12      26.439   2.780 -18.821  0.00  0.00    -0.298 N 
ATOM     25  H   LYS A  12      26.558   3.535 -18.115  0.00  0.00    +0.150 HD
ATOM     26  O   VAL A  11      26.046   0.597 -19.128  0.00  0.00    -0.273 OA
BRANCH  24  27
ATOM     27  CA  LYS A  12      26.555   3.146 -20.253  0.00  0.00    +0.137 C 
BRANCH  27  28
ATOM     28  C   LYS A  12      27.766   2.524 -20.904  0.00  0.00    +0.227 C 
ATOM     29  O   LYS A  12      27.660   1.921 -21.972  0.00  0.00    -0.286 OA
ENDBRANCH  27  28
BRANCH  27  30
ATOM     30  CB  LYS A  12      26.549   4.682 -20.445  0.00  0.00    +0.028 C 
BRANCH  30  31
ATOM     31  CG  LYS A  12      25.220   5.317 -20.137  0.00  0.00    -0.000 C 
BRANCH  31  32
ATOM     32  CD  LYS A  12      24.059   4.368 -20.631  0.00  0.00    -0.024 C 
BRANCH  32  33
ATOM     33  CE  LYS A  12      22.680   4.816 -20.154  0.00  0.00    -0.086 C 
BRANCH  33  34
ATOM     34  NZ  LYS A  12      21.577   4.029 -20.790  0.00  0.00    +0.380 N 
ATOM     35  HZ1 LYS A  12      20.661   4.369 -20.435  0.00  0.00    -0.089 HD
ATOM     36  HZ2 LYS A  12      21.690   3.023 -20.553  0.00  0.00    -0.089 HD
ATOM     37  HZ3 LYS A  12      21.617   4.150 -21.822  0.00  0.00    -0.089 HD
ENDBRANCH  33  34
ENDBRANCH  32  33
ENDBRANCH  31  32
ENDBRANCH  30  31
ENDBRANCH  27  30
ENDBRANCH  24  27
ENDBRANCH  22  23
BRANCH  22  38
ATOM     38  CB  VAL A  11      24.849   1.919 -16.205  0.00  0.00    +0.027 C 
ATOM     39  CG2 VAL A  11      24.707   1.458 -14.777  0.00  0.00    +0.002 C 
ATOM     40  CG1 VAL A  11      23.603   1.605 -16.980  0.00  0.00    +0.002 C 
ENDBRANCH  22  38
ENDBRANCH  19  22
ENDBRANCH  17  18
BRANCH  17  41
ATOM     41  CB  GLU A  10      29.926   2.117 -14.535  0.00  0.00    +0.041 C 
BRANCH  41  42
ATOM     42  CG  GLU A  10      30.431   0.687 -14.520  0.00  0.00    +0.116 C 
BRANCH  42  43
ATOM     43  CD  GLU A  10      31.834   0.528 -15.134  0.00  0.00    +0.365 C 
ATOM     44  OE2 GLU A  10      32.362  -0.593 -15.043  0.00  0.00    -0.246 OA
ATOM     45  OE1 GLU A  10      32.393   1.492 -15.700  0.00  0.00    -0.246 OA
ENDBRANCH  42  43
ENDBRANCH  41  42
ENDBRANCH  17  41
ENDBRANCH  14  17
ENDBRANCH  11  13
ENDBRANCH   8  11
ENDBRANCH   6   7
BRANCH   6  46
ATOM     46  CB  TYR A   8      25.172   7.687 -14.808  0.00  0.00    +0.055 C 
BRANCH  46  47
ATOM     47  CG  TYR A   8      24.754   8.081 -16.225  0.00  0.00    -0.020 A 
ATOM     48  CD2 TYR A   8      23.484   7.769 -16.702  0.00  0.00    -0.001 A 
ATOM     49  CE2 TYR A   8      23.096   8.069 -17.993  0.00  0.00    +0.036 A 
ATOM     50  CZ  TYR A   8      23.953   8.692 -18.836  0.00  0.00    +0.134 A 
ATOM     51  CE1 TYR A   8      25.240   9.022 -18.410  0.00  0.00    +0.036 A 
ATOM     52  CD1 TYR A   8      25.636   8.720 -17.097  0.00  0.00    -0.001 A 
BRANCH  50  53
ATOM     53  OH  TYR A   8      23.533   8.993 -20.115  0.00  0.00    -0.506 OA
ATOM     54  HH  TYR A   8      22.600   8.686 -20.235  0.00  0.00    +0.292 HD
ENDBRANCH  50  53
ENDBRANCH  46  47
ENDBRANCH   6  46
ENDBRANCH   3   6
ENDBRANCH   1   2
BRANCH   1  56
ATOM     55  C   PRO A   6      29.064   6.180 -12.001  0.00  0.00    +0.241 C 
ATOM     56  N   VAL A   7      28.083   5.633 -11.220  0.00  0.00    -0.297 N 
ATOM     57  H   VAL A   7      27.887   6.031 -10.279  0.00  0.00    +0.150 HD
ATOM     58  O   PRO A   6      29.448   5.696 -13.073  0.00  0.00    -0.273 OA
BRANCH  55  64
ATOM     59  C   THR A   5      27.698   8.535 -10.688  0.00  0.00    +0.246 C 
ATOM     60  N   PRO A   6      28.939   8.079 -10.413  0.00  0.00    -0.272 N 
ATOM     61  CD  PRO A   6      29.637   8.146  -9.122  0.00  0.00    +0.094 C 
ATOM     62  CG  PRO A   6      31.027   7.908  -9.506  0.00  0.00    +0.024 C 
ATOM     63  CB  PRO A   6      30.982   6.988 -10.674  0.00  0.00    +0.031 C 
ATOM     64  CA  PRO A   6      29.739   7.428 -11.444  0.00  0.00    +0.152 C 
ATOM     65  O   THR A   5      27.213   8.503 -11.813  0.00  0.00    -0.273 OA
BRANCH  59  66
ATOM     66  CA  THR A   5      26.921   9.079  -9.518  0.00  0.00    +0.176 C 
BRANCH  66  69
ATOM     67  C   LYS A   4      25.570  11.016  -9.009  0.00  0.00    +0.241 C 
ATOM     68  O   LYS A   4      25.757  10.897  -7.791  0.00  0.00    -0.273 OA
ATOM     69  N   THR A   5      26.173  10.250  -9.916  0.00  0.00    -0.295 N 
ATOM     70  H   THR A   5      26.105  10.497 -10.924  0.00  0.00    +0.150 HD
BRANCH  67  71
ATOM     71  CA  LYS A   4      24.578  12.056  -9.524  0.00  0.00    +0.149 C 
BRANCH  71  73
ATOM     72  C   GLY A   3      22.414  11.133  -8.741  0.00  0.00    +0.243 C 
ATOM     73  N   LYS A   4      23.386  12.050  -8.663  0.00  0.00    -0.297 N 
ATOM     74  H   LYS A   4      23.293  12.803  -7.951  0.00  0.00    +0.150 HD
ATOM     75  O   GLY A   3      22.446  10.172  -9.503  0.00  0.00    -0.273 OA
BRANCH  72  76
ATOM     76  CA  GLY A   3      21.245  11.343  -7.790  0.00  0.00    +0.176 C 
BRANCH  76  79
ATOM     77  C   PRO A   2      21.346   9.161  -6.728  0.00  0.00    +0.241 C 
ATOM     78  O   PRO A   2      22.532   9.287  -6.474  0.00  0.00    -0.273 OA
ATOM     79  N   GLY A   3      20.624  10.120  -7.303  0.00  0.00    -0.295 N 
ATOM     80  H   GLY A   3      19.597   9.993  -7.406  0.00  0.00    +0.150 HD
BRANCH  77  83
ATOM     81  C   LEU A   1      20.000   6.835  -8.501  0.00  0.00    +0.241 C 
ATOM     82  N   PRO A   2      20.841   6.847  -7.446  0.00  0.00    -0.272 N 
ATOM     83  CA  PRO A   2      20.673   7.825  -6.368  0.00  0.00    +0.152 C 
ATOM     84  CB  PRO A   2      21.395   7.168  -5.191  0.00  0.00    +0.031 C 
ATOM     85  CG  PRO A   2      22.269   6.107  -5.776  0.00  0.00    +0.024 C 
ATOM     86  CD  PRO A   2      22.079   6.072  -7.258  0.00  0.00    +0.094 C 
ATOM     87  O   LEU A   1      19.033   7.569  -8.576  0.00  0.00    -0.273 OA
BRANCH  81  88
ATOM     88  CA  LEU A   1      20.330   5.897  -9.631  0.00  0.00    +0.145 C 
BRANCH  88  89
ATOM     89  N   LEU A   1      19.115   5.221 -10.068  0.00  0.00    -0.238 NA
ATOM     90  H   LEU A   1      18.340   5.774 -10.487  0.00  0.00    +0.142 HD
ENDBRANCH  88  89
BRANCH  88  91
ATOM     91  CB  LEU A   1      20.956   6.666 -10.794  0.00  0.00    +0.026 C 
BRANCH  91  92
ATOM     92  CG  LEU A   1      21.226   5.968 -12.129  0.00  0.00    +0.002 C 
ATOM     93  CD2 LEU A   1      22.377   5.037 -12.028  0.00  0.00    +0.000 C 
ATOM     94  CD1 LEU A   1      21.449   6.979 -13.233  0.00  0.00    +0.000 C 
ENDBRANCH  91  92
ENDBRANCH  88  91
ENDBRANCH  81  88
ENDBRANCH  77  83
ENDBRANCH  76  79
ENDBRANCH  72  76
ENDBRANCH  71  73
BRANCH  71  95
ATOM     95  CB  LYS A   4      25.243  13.459  -9.587  0.00  0.00    +0.029 C 
BRANCH  95  96
ATOM     96  CG  LYS A   4      26.601  13.448 -10.267  0.00  0.00    +0.000 C 
BRANCH  96  97
ATOM     97  CD  LYS A   4      27.112  14.824 -10.738  0.00  0.00    -0.024 C 
BRANCH  97  98
ATOM     98  CE  LYS A   4      27.962  15.489  -9.646  0.00  0.00    -0.086 C 
BRANCH  98  99
ATOM     99  NZ  LYS A   4      29.378  14.995  -9.533  0.00  0.00    +0.380 N 
ATOM    100  HZ1 LYS A   4      29.863  15.507  -8.769  0.00  0.00    -0.089 HD
ATOM    101  HZ2 LYS A   4      29.373  13.977  -9.321  0.00  0.00    -0.089 HD
ATOM    102  HZ3 LYS A   4      29.874  15.160 -10.432  0.00  0.00    -0.089 HD
ENDBRANCH  98  99
ENDBRANCH  97  98
ENDBRANCH  96  97
ENDBRANCH  95  96
ENDBRANCH  71  95
ENDBRANCH  67  71
ENDBRANCH  66  69
BRANCH  66 103
ATOM    103  CB  THR A   5      26.017   7.977  -8.946  0.00  0.00    +0.137 C 
ATOM    104  CG2 THR A   5      24.900   7.640  -9.922  0.00  0.00    +0.034 C 
BRANCH 103 105
ATOM    105  OG1 THR A   5      26.801   6.813  -8.706  0.00  0.00    -0.382 OA
ATOM    106  HG1 THR A   5      26.224   6.098  -8.337  0.00  0.00    +0.210 HD
ENDBRANCH 103 105
ENDBRANCH  66 103
ENDBRANCH  59  66
ENDBRANCH  55  64
ENDBRANCH   1  56
BRANCH   1 107
ATOM    107  CB  VAL A   7      26.201   4.059 -10.712  0.00  0.00    +0.027 C 
ATOM    108  CG2 VAL A   7      26.803   3.538  -9.447  0.00  0.00    +0.002 C 
ATOM    109  CG1 VAL A   7      25.303   3.017 -11.349  0.00  0.00    +0.002 C 
ENDBRANCH   1 107
TORSDOF 44
REMARK  Name = ../refined-set-2016/3qx9/3qx9_pocket.pdb
REMARK  132 active torsions:
REMARK  status: ('A' for Active; 'I' for Inactive)
REMARK    1  A    between atoms: _1  and  _5
REMARK    2  A    between atoms: _5  and  _6
REMARK    3  A    between atoms: _5  and  _8
REMARK    4  A    between atoms: _8  and  _9
REMARK    5  A    between atoms: _9  and  _10
REMARK    6  A    between atoms: _10  and  _11
REMARK    7  A    between atoms: _11  and  _12
REMARK    8  A    between atoms: _16  and  _18
REMARK    9  A    between atoms: _18  and  _19
REMARK   10  A    between atoms: _18  and  _21
REMARK   11  A    between atoms: _21  and  _22
REMARK   12  A    between atoms: _25  and  _27
REMARK   13  A    between atoms: _27  and  _28
REMARK   14  A    between atoms: _27  and  _30
REMARK   15  A    between atoms: _33  and  _35
REMARK   16  A    between atoms: _35  and  _36
REMARK   17  A    between atoms: _35  and  _38
REMARK   18  A    between atoms: _41  and  _43
REMARK   19  A    between atoms: _43  and  _44
REMARK   20  A    between atoms: _43  and  _46
REMARK   21  A    between atoms: _46  and  _47
REMARK   22  A    between atoms: _51  and  _52
REMARK   23  A    between atoms: _57  and  _59
REMARK   24  A    between atoms: _59  and  _60
REMARK   25  A    between atoms: _62  and  _64
REMARK   26  A    between atoms: _64  and  _65
REMARK   27  A    between atoms: _64  and  _67
REMARK   28  A    between atoms: _67  and  _68
REMARK   29  A    between atoms: _68  and  _69
REMARK   30  A    between atoms: _69  and  _70
REMARK   31  A    between atoms: _70  and  _71
REMARK   32  A    between atoms: _75  and  _77
REMARK   33  A    between atoms: _77  and  _78
REMARK   34  A    between atoms: _77  and  _80
REMARK   35  A    between atoms: _80  and  _81
REMARK   36  A    between atoms: _85  and  _86
REMARK   37  A    between atoms: _91  and  _93
REMARK   38  A    between atoms: _93  and  _94
REMARK   39  A    between atoms: _93  and  _96
REMARK   40  A    between atoms: _99  and  _101
REMARK   41  A    between atoms: _101  and  _102
REMARK   42  A    between atoms: _101  and  _104
REMARK   43  A    between atoms: _104  and  _105
REMARK   44  A    between atoms: _110  and  _111
REMARK   45  A    between atoms: _113  and  _115
REMARK   46  A    between atoms: _115  and  _116
REMARK   47  A    between atoms: _119  and  _121
REMARK   48  A    between atoms: _121  and  _122
REMARK   49  A    between atoms: _121  and  _124
REMARK   50  A    between atoms: _124  and  _125
REMARK   51  A    between atoms: _125  and  _126
REMARK   52  A    between atoms: _129  and  _131
REMARK   53  A    between atoms: _131  and  _132
REMARK   54  A    between atoms: _131  and  _134
REMARK   55  A    between atoms: _137  and  _139
REMARK   56  A    between atoms: _139  and  _140
REMARK   57  A    between atoms: _139  and  _142
REMARK   58  A    between atoms: _142  and  _143
REMARK   59  A    between atoms: _143  and  _144
REMARK   60  A    between atoms: _144  and  _145
REMARK   61  A    between atoms: _145  and  _146
REMARK   62  A    between atoms: _150  and  _152
REMARK   63  A    between atoms: _152  and  _153
REMARK   64  A    between atoms: _152  and  _155
REMARK   65  A    between atoms: _155  and  _156
REMARK   66  A    between atoms: _159  and  _161
REMARK   67  A    between atoms: _161  and  _162
REMARK   68  A    between atoms: _165  and  _167
REMARK   69  A    between atoms: _167  and  _168
REMARK   70  A    between atoms: _167  and  _170
REMARK   71  A    between atoms: _170  and  _171
REMARK   72  A    between atoms: _174  and  _176
REMARK   73  A    between atoms: _176  and  _177
REMARK   74  A    between atoms: _176  and  _179
REMARK   75  A    between atoms: _179  and  _180
REMARK   76  A    between atoms: _180  and  _181
REMARK   77  A    between atoms: _186  and  _188
REMARK   78  A    between atoms: _188  and  _189
REMARK   79  A    between atoms: _188  and  _191
REMARK   80  A    between atoms: _193  and  _195
REMARK   81  A    between atoms: _195  and  _196
REMARK   82  A    between atoms: _195  and  _198
REMARK   83  A    between atoms: _201  and  _203
REMARK   84  A    between atoms: _203  and  _204
REMARK   85  A    between atoms: _203  and  _206
REMARK   86  A    between atoms: _206  and  _207
REMARK   87  A    between atoms: _207  and  _208
REMARK   88  A    between atoms: _213  and  _215
REMARK   89  A    between atoms: _215  and  _216
REMARK   90  A    between atoms: _215  and  _218
REMARK   91  A    between atoms: _218  and  _219
REMARK   92  A    between atoms: _219  and  _220
REMARK   93  A    between atoms: _222  and  _224
REMARK   94  A    between atoms: _224  and  _225
REMARK   95  A    between atoms: _224  and  _227
REMARK   96  A    between atoms: _227  and  _228
REMARK   97  A    between atoms: _228  and  _229
REMARK   98  A    between atoms: _229  and  _230
REMARK   99  A    between atoms: _230  and  _231
REMARK  100  A    between atoms: _235  and  _237
REMARK  101  A    between atoms: _237  and  _238
REMARK  102  A    between atoms: _237  and  _240
REMARK  103  A    between atoms: _240  and  _241
REMARK  104  A    between atoms: _246  and  _248
REMARK  105  A    between atoms: _248  and  _249
REMARK  106  A    between atoms: _248  and  _251
REMARK  107  A    between atoms: _251  and  _252
REMARK  108  A    between atoms: _257  and  _259
REMARK  109  A    between atoms: _259  and  _260
REMARK  110  A    between atoms: _259  and  _262
REMARK  111  A    between atoms: _262  and  _263
REMARK  112  A    between atoms: _266  and  _268
REMARK  113  A    between atoms: _268  and  _269
REMARK  114  A    between atoms: _268  and  _271
REMARK  115  A    between atoms: _271  and  _272
REMARK  116  A    between atoms: _272  and  _273
REMARK  117  A    between atoms: _273  and  _274
REMARK  118  A    between atoms: _274  and  _275
REMARK  119  A    between atoms: _279  and  _281
REMARK  120  A    between atoms: _281  and  _282
REMARK  121  A    between atoms: _281  and  _284
REMARK  122  A    between atoms: _284  and  _285
REMARK  123  A    between atoms: _288  and  _290
REMARK  124  A    between atoms: _290  and  _291
REMARK  125  A    between atoms: _290  and  _293
REMARK  126  A    between atoms: _296  and  _298
REMARK  127  A    between atoms: _298  and  _299
REMARK  128  A    between atoms: _298  and  _301
REMARK  129  A    between atoms: _301  and  _302
REMARK  130  A    between atoms: _302  and  _303
REMARK  131  A    between atoms: _303  and  _304
REMARK  132  A    between atoms: _304  and  _305
REMARK                            x       y       z     vdW  Elec       q    Type
REMARK                         _______ _______ _______ _____ _____    ______ ____
ROOT
ATOM      1  CA  ASP A   1      26.533   0.471 -24.670  0.00  0.00    +0.144 C 
ENDROOT
BRANCH   1   2
ATOM      2  N   ASP A   1      26.465  -0.126 -23.354  0.00  0.00    -0.239 NA
ATOM      3  H   ASP A   1      26.767   0.409 -22.515  0.00  0.00    +0.142 HD
ENDBRANCH   1   2
BRANCH   1   4
ATOM      4  C   ASP A   1      27.764  -0.027 -25.458  0.00  0.00    +0.225 C 
ATOM      5  O   ASP A   1      27.699  -0.197 -26.652  0.00  0.00    -0.287 OA
ENDBRANCH   1   4
BRANCH   1   6
ATOM      6  CB  ASP A   1      26.528   2.006 -24.574  0.00  0.00    +0.139 C 
BRANCH   6   7
ATOM      7  CG  ASP A   1      25.147   2.579 -24.370  0.00  0.00    +0.367 C 
ATOM      8  OD2 ASP A   1      25.076   3.826 -24.243  0.00  0.00    -0.246 OA
ATOM      9  OD1 ASP A   1      24.136   1.820 -24.364  0.00  0.00    -0.246 OA
ENDBRANCH   6   7
ENDBRANCH   1   6
TORSDOF 4
REMARK  Name = ../refined-set-2016/3qx9/3qx9_pocket.pdb
REMARK  132 active torsions:
REMARK  status: ('A' for Active; 'I' for Inactive)
REMARK    1  A    between atoms: _1  and  _5
REMARK    2  A    between atoms: _5  and  _6
REMARK    3  A    between atoms: _5  and  _8
REMARK    4  A    between atoms: _8  and  _9
REMARK    5  A    between atoms: _9  and  _10
REMARK    6  A    between atoms: _10  and  _11
REMARK    7  A    between atoms: _11  and  _12
REMARK    8  A    between atoms: _16  and  _18
REMARK    9  A    between atoms: _18  and  _19
REMARK   10  A    between atoms: _18  and  _21
REMARK   11  A    between atoms: _21  and  _22
REMARK   12  A    between atoms: _25  and  _27
REMARK   13  A    between atoms: _27  and  _28
REMARK   14  A    between atoms: _27  and  _30
REMARK   15  A    between atoms: _33  and  _35
REMARK   16  A    between atoms: _35  and  _36
REMARK   17  A    between atoms: _35  and  _38
REMARK   18  A    between atoms: _41  and  _43
REMARK   19  A    between atoms: _43  and  _44
REMARK   20  A    between atoms: _43  and  _46
REMARK   21  A    between atoms: _46  and  _47
REMARK   22  A    between atoms: _51  and  _52
REMARK   23  A    between atoms: _57  and  _59
REMARK   24  A    between atoms: _59  and  _60
REMARK   25  A    between atoms: _62  and  _64
REMARK   26  A    between atoms: _64  and  _65
REMARK   27  A    between atoms: _64  and  _67
REMARK   28  A    between atoms: _67  and  _68
REMARK   29  A    between atoms: _68  and  _69
REMARK   30  A    between atoms: _69  and  _70
REMARK   31  A    between atoms: _70  and  _71
REMARK   32  A    between atoms: _75  and  _77
REMARK   33  A    between atoms: _77  and  _78
REMARK   34  A    between atoms: _77  and  _80
REMARK   35  A    between atoms: _80  and  _81
REMARK   36  A    between atoms: _85  and  _86
REMARK   37  A    between atoms: _91  and  _93
REMARK   38  A    between atoms: _93  and  _94
REMARK   39  A    between atoms: _93  and  _96
REMARK   40  A    between atoms: _99  and  _101
REMARK   41  A    between atoms: _101  and  _102
REMARK   42  A    between atoms: _101  and  _104
REMARK   43  A    between atoms: _104  and  _105
REMARK   44  A    between atoms: _110  and  _111
REMARK   45  A    between atoms: _113  and  _115
REMARK   46  A    between atoms: _115  and  _116
REMARK   47  A    between atoms: _119  and  _121
REMARK   48  A    between atoms: _121  and  _122
REMARK   49  A    between atoms: _121  and  _124
REMARK   50  A    between atoms: _124  and  _125
REMARK   51  A    between atoms: _125  and  _126
REMARK   52  A    between atoms: _129  and  _131
REMARK   53  A    between atoms: _131  and  _132
REMARK   54  A    between atoms: _131  and  _134
REMARK   55  A    between atoms: _137  and  _139
REMARK   56  A    between atoms: _139  and  _140
REMARK   57  A    between atoms: _139  and  _142
REMARK   58  A    between atoms: _142  and  _143
REMARK   59  A    between atoms: _143  and  _144
REMARK   60  A    between atoms: _144  and  _145
REMARK   61  A    between atoms: _145  and  _146
REMARK   62  A    between atoms: _150  and  _152
REMARK   63  A    between atoms: _152  and  _153
REMARK   64  A    between atoms: _152  and  _155
REMARK   65  A    between atoms: _155  and  _156
REMARK   66  A    between atoms: _159  and  _161
REMARK   67  A    between atoms: _161  and  _162
REMARK   68  A    between atoms: _165  and  _167
REMARK   69  A    between atoms: _167  and  _168
REMARK   70  A    between atoms: _167  and  _170
REMARK   71  A    between atoms: _170  and  _171
REMARK   72  A    between atoms: _174  and  _176
REMARK   73  A    between atoms: _176  and  _177
REMARK   74  A    between atoms: _176  and  _179
REMARK   75  A    between atoms: _179  and  _180
REMARK   76  A    between atoms: _180  and  _181
REMARK   77  A    between atoms: _186  and  _188
REMARK   78  A    between atoms: _188  and  _189
REMARK   79  A    between atoms: _188  and  _191
REMARK   80  A    between atoms: _193  and  _195
REMARK   81  A    between atoms: _195  and  _196
REMARK   82  A    between atoms: _195  and  _198
REMARK   83  A    between atoms: _201  and  _203
REMARK   84  A    between atoms: _203  and  _204
REMARK   85  A    between atoms: _203  and  _206
REMARK   86  A    between atoms: _206  and  _207
REMARK   87  A    between atoms: _207  and  _208
REMARK   88  A    between atoms: _213  and  _215
REMARK   89  A    between atoms: _215  and  _216
REMARK   90  A    between atoms: _215  and  _218
REMARK   91  A    between atoms: _218  and  _219
REMARK   92  A    between atoms: _219  and  _220
REMARK   93  A    between atoms: _222  and  _224
REMARK   94  A    between atoms: _224  and  _225
REMARK   95  A    between atoms: _224  and  _227
REMARK   96  A    between atoms: _227  and  _228
REMARK   97  A    between atoms: _228  and  _229
REMARK   98  A    between atoms: _229  and  _230
REMARK   99  A    between atoms: _230  and  _231
REMARK  100  A    between atoms: _235  and  _237
REMARK  101  A    between atoms: _237  and  _238
REMARK  102  A    between atoms: _237  and  _240
REMARK  103  A    between atoms: _240  and  _241
REMARK  104  A    between atoms: _246  and  _248
REMARK  105  A    between atoms: _248  and  _249
REMARK  106  A    between atoms: _248  and  _251
REMARK  107  A    between atoms: _251  and  _252
REMARK  108  A    between atoms: _257  and  _259
REMARK  109  A    between atoms: _259  and  _260
REMARK  110  A    between atoms: _259  and  _262
REMARK  111  A    between atoms: _262  and  _263
REMARK  112  A    between atoms: _266  and  _268
REMARK  113  A    between atoms: _268  and  _269
REMARK  114  A    between atoms: _268  and  _271
REMARK  115  A    between atoms: _271  and  _272
REMARK  116  A    between atoms: _272  and  _273
REMARK  117  A    between atoms: _273  and  _274
REMARK  118  A    between atoms: _274  and  _275
REMARK  119  A    between atoms: _279  and  _281
REMARK  120  A    between atoms: _281  and  _282
REMARK  121  A    between atoms: _281  and  _284
REMARK  122  A    between atoms: _284  and  _285
REMARK  123  A    between atoms: _288  and  _290
REMARK  124  A    between atoms: _290  and  _291
REMARK  125  A    between atoms: _290  and  _293
REMARK  126  A    between atoms: _296  and  _298
REMARK  127  A    between atoms: _298  and  _299
REMARK  128  A    between atoms: _298  and  _301
REMARK  129  A    between atoms: _301  and  _302
REMARK  130  A    between atoms: _302  and  _303
REMARK  131  A    between atoms: _303  and  _304
REMARK  132  A    between atoms: _304  and  _305
REMARK                            x       y       z     vdW  Elec       q    Type
REMARK                         _______ _______ _______ _____ _____    ______ ____
ROOT
ATOM      1  C   VAL A   5      16.445   7.130 -12.502  0.00  0.00    +0.241 C 
ATOM      2  O   VAL A   5      17.173   6.464 -11.784  0.00  0.00    -0.273 OA
ATOM      3  N   GLN A   6      15.998   8.312 -12.134  0.00  0.00    -0.297 N 
ATOM      4  H   GLN A   6      15.349   8.832 -12.759  0.00  0.00    +0.150 HD
ENDROOT
BRANCH   1   5
ATOM      5  CA  VAL A   5      15.980   6.640 -13.873  0.00  0.00    +0.149 C 
BRANCH   5   7
ATOM      6  C   CYS A   4      17.290   5.911 -15.787  0.00  0.00    +0.242 C 
ATOM      7  N   VAL A   5      17.067   5.912 -14.485  0.00  0.00    -0.297 N 
ATOM      8  H   VAL A   5      17.703   5.363 -13.872  0.00  0.00    +0.150 HD
ATOM      9  O   CYS A   4      16.594   6.513 -16.581  0.00  0.00    -0.273 OA
BRANCH   6  10
ATOM     10  CA  CYS A   4      18.468   5.052 -16.246  0.00  0.00    +0.160 C 
BRANCH  10  13
ATOM     11  C   GLN A   3      17.600   3.417 -17.823  0.00  0.00    +0.241 C 
ATOM     12  O   GLN A   3      17.153   2.694 -16.940  0.00  0.00    -0.273 OA
ATOM     13  N   CYS A   4      18.255   4.552 -17.591  0.00  0.00    -0.296 N 
ATOM     14  H   CYS A   4      18.625   5.096 -18.397  0.00  0.00    +0.150 HD
BRANCH  11  15
ATOM     15  CA  GLN A   3      17.482   3.022 -19.254  0.00  0.00    +0.149 C 
BRANCH  15  17
ATOM     16  C   THR A   2      18.875   1.532 -20.430  0.00  0.00    +0.243 C 
ATOM     17  N   GLN A   3      18.112   1.738 -19.378  0.00  0.00    -0.297 N 
ATOM     18  H   GLN A   3      17.970   0.997 -18.662  0.00  0.00    +0.150 HD
ATOM     19  O   THR A   2      18.954   2.366 -21.341  0.00  0.00    -0.273 OA
BRANCH  16  20
ATOM     20  CA  THR A   2      19.674   0.241 -20.455  0.00  0.00    +0.176 C 
BRANCH  20  23
ATOM     21  C   ALA A   1      19.643  -1.424 -22.243  0.00  0.00    +0.238 C 
ATOM     22  O   ALA A   1      19.303  -2.322 -21.479  0.00  0.00    -0.274 OA
ATOM     23  N   THR A   2      19.882  -0.177 -21.836  0.00  0.00    -0.295 N 
ATOM     24  H   THR A   2      20.228   0.520 -22.526  0.00  0.00    +0.150 HD
BRANCH  21  25
ATOM     25  CA  ALA A   1      19.865  -1.723 -23.719  0.00  0.00    +0.145 C 
ATOM     26  CB  ALA A   1      18.520  -1.838 -24.497  0.00  0.00    +0.028 C 
BRANCH  25  27
ATOM     27  N   ALA A   1      20.624  -2.969 -23.793  0.00  0.00    -0.238 NA
ATOM     28  H   ALA A   1      20.164  -3.834 -24.142  0.00  0.00    +0.142 HD
ENDBRANCH  25  27
ENDBRANCH  21  25
ENDBRANCH  20  23
BRANCH  20  29
ATOM     29  CB  THR A   2      21.008   0.487 -19.660  0.00  0.00    +0.137 C 
ATOM     30  CG2 THR A   2      21.752  -0.830 -19.433  0.00  0.00    +0.034 C 
BRANCH  29  31
ATOM     31  OG1 THR A   2      21.847   1.413 -20.378  0.00  0.00    -0.382 OA
ATOM     32  HG1 THR A   2      22.063   1.039 -21.269  0.00  0.00    +0.210 HD
ENDBRANCH  29  31
ENDBRANCH  20  29
ENDBRANCH  16  20
ENDBRANCH  15  17
BRANCH  15  33
ATOM     33  CB  GLN A   3      16.028   2.919 -19.698  0.00  0.00    +0.039 C 
BRANCH  33  34
ATOM     34  CG  GLN A   3      15.222   4.137 -19.413  0.00  0.00    +0.087 C 
BRANCH  34  35
ATOM     35  CD  GLN A   3      15.704   5.363 -20.168  0.00  0.00    +0.219 C 
ATOM     36  NE2 GLN A   3      15.923   6.444 -19.446  0.00  0.00    -0.329 N 
ATOM     37 HE21 GLN A   3      15.755   6.427 -18.420  0.00  0.00    +0.145 HD
ATOM     38 HE22 GLN A   3      16.264   7.314 -19.903  0.00  0.00    +0.145 HD
ATOM     39  OE1 GLN A   3      15.887   5.327 -21.389  0.00  0.00    -0.275 OA
ENDBRANCH  34  35
ENDBRANCH  33  34
ENDBRANCH  15  33
ENDBRANCH  11  15
ENDBRANCH  10  13
BRANCH  10  40
ATOM     40  CB  CYS A   4      19.788   5.820 -16.128  0.00  0.00    +0.098 C 
ATOM     41  SG  CYS A   4      21.271   4.832 -16.421  0.00  0.00    -0.080 S 
ENDBRANCH  10  40
ENDBRANCH   6  10
ENDBRANCH   5   7
BRANCH   5  42
ATOM     42  CB  VAL A   5      14.683   5.770 -13.742  0.00  0.00    +0.027 C 
ATOM     43  CG2 VAL A   5      14.955   4.491 -12.980  0.00  0.00    +0.002 C 
ATOM     44  CG1 VAL A   5      13.586   6.537 -13.048  0.00  0.00    +0.002 C 
ENDBRANCH   5  42
ENDBRANCH   1   5
BRANCH   3  45
ATOM     45  CA  GLN A   6      16.395   8.898 -10.875  0.00  0.00    +0.149 C 
BRANCH  45  46
ATOM     46  C   GLN A   6      15.555   8.366  -9.745  0.00  0.00    +0.241 C 
ATOM     47  N   MET A   7      16.221   8.046  -8.647  0.00  0.00    -0.297 N 
ATOM     48  H   MET A   7      17.256   8.151  -8.653  0.00  0.00    +0.150 HD
ATOM     49  O   GLN A   6      14.358   8.249  -9.856  0.00  0.00    -0.273 OA
BRANCH  47  50
ATOM     50  CA  MET A   7      15.589   7.556  -7.435  0.00  0.00    +0.149 C 
BRANCH  50  51
ATOM     51  C   MET A   7      14.356   8.355  -7.044  0.00  0.00    +0.241 C 
ATOM     52  O   MET A   7      13.348   7.766  -6.666  0.00  0.00    -0.273 OA
ATOM     53  N   LYS A   8      14.433   9.691  -7.116  0.00  0.00    -0.297 N 
ATOM     54  H   LYS A   8      15.298  10.140  -7.479  0.00  0.00    +0.150 HD
BRANCH  53  55
ATOM     55  CA  LYS A   8      13.305  10.525  -6.687  0.00  0.00    +0.149 C 
BRANCH  55  56
ATOM     56  C   LYS A   8      12.040  10.270  -7.512  0.00  0.00    +0.241 C 
ATOM     57  O   LYS A   8      10.902  10.371  -7.024  0.00  0.00    -0.273 OA
ATOM     58  N   ASN A   9      12.259   9.945  -8.801  0.00  0.00    -0.298 N 
ATOM     59  H   ASN A   9      13.231   9.959  -9.171  0.00  0.00    +0.150 HD
BRANCH  58  60
ATOM     60  CA  ASN A   9      11.164   9.574  -9.688  0.00  0.00    +0.146 C 
BRANCH  60  61
ATOM     61  C   ASN A   9      10.622   8.154  -9.532  0.00  0.00    +0.227 C 
ATOM     62  O   ASN A   9       9.603   7.806 -10.139  0.00  0.00    -0.286 OA
ENDBRANCH  60  61
BRANCH  60  63
ATOM     63  CB  ASN A   9      11.563   9.857 -11.136  0.00  0.00    +0.112 C 
BRANCH  63  64
ATOM     64  CG  ASN A   9      11.807  11.332 -11.372  0.00  0.00    +0.222 C 
ATOM     65  OD1 ASN A   9      11.140  12.186 -10.777  0.00  0.00    -0.275 OA
ATOM     66  ND2 ASN A   9      12.747  11.646 -12.263  0.00  0.00    -0.329 N 
ATOM     67 HD21 ASN A   9      12.944  12.644 -12.482  0.00  0.00    +0.145 HD
ATOM     68 HD22 ASN A   9      13.284  10.894 -12.740  0.00  0.00    +0.145 HD
ENDBRANCH  63  64
ENDBRANCH  60  63
ENDBRANCH  58  60
ENDBRANCH  55  56
BRANCH  55  69
ATOM     69  CB  LYS A   8      13.650  12.006  -6.789  0.00  0.00    +0.029 C 
BRANCH  69  70
ATOM     70  CG  LYS A   8      14.039  12.431  -8.186  0.00  0.00    +0.000 C 
BRANCH  70  71
ATOM     71  CD  LYS A   8      14.563  13.893  -8.254  0.00  0.00    -0.024 C 
BRANCH  71  72
ATOM     72  CE  LYS A   8      15.151  14.228  -9.604  0.00  0.00    -0.086 C 
BRANCH  72  73
ATOM     73  NZ  LYS A   8      15.469  15.696  -9.657  0.00  0.00    +0.380 N 
ATOM     74  HZ1 LYS A   8      16.155  15.928  -8.911  0.00  0.00    -0.089 HD
ATOM     75  HZ2 LYS A   8      14.597  16.244  -9.511  0.00  0.00    -0.089 HD
ATOM     76  HZ3 LYS A   8      15.874  15.928 -10.586  0.00  0.00    -0.089 HD
ENDBRANCH  72  73
ENDBRANCH  71  72
ENDBRANCH  70  71
ENDBRANCH  69  70
ENDBRANCH  55  69
ENDBRANCH  53  55
ENDBRANCH  50  51
BRANCH  50  77
ATOM     77  CB  MET A   7      16.609   7.557  -6.302  0.00  0.00    +0.041 C 
BRANCH  77  78
ATOM     78  CG  MET A   7      16.032   7.456  -4.915  0.00  0.00    +0.060 C 
BRANCH  78  79
ATOM     79  SD  MET A   7      17.269   7.224  -3.663  0.00  0.00    -0.139 S 
ATOM     80  CE  MET A   7      17.827   8.901  -3.462  0.00  0.00    +0.069 C 
ENDBRANCH  78  79
ENDBRANCH  77  78
ENDBRANCH  50  77
ENDBRANCH  47  50
ENDBRANCH  45  46
BRANCH  45  81
ATOM     81  CB  GLN A   6      16.325  10.429 -10.958  0.00  0.00    +0.039 C 
BRANCH  81  82
ATOM     82  CG  GLN A   6      17.581  11.084 -11.572  0.00  0.00    +0.087 C 
BRANCH  82  83
ATOM     83  CD  GLN A   6      18.853  10.718 -10.835  0.00  0.00    +0.219 C 
ATOM     84  OE1 GLN A   6      18.875  10.664  -9.609  0.00  0.00    -0.275 OA
ATOM     85  NE2 GLN A   6      19.913  10.428 -11.588  0.00  0.00    -0.329 N 
ATOM     86 HE21 GLN A   6      20.807  10.142 -11.140  0.00  0.00    +0.145 HD
ATOM     87 HE22 GLN A   6      19.847  10.488 -12.624  0.00  0.00    +0.145 HD
ENDBRANCH  82  83
ENDBRANCH  81  82
ENDBRANCH  45  81
ENDBRANCH   3  45
TORSDOF 38
REMARK  Name = ../refined-set-2016/3qx9/3qx9_pocket.pdb
REMARK  132 active torsions:
REMARK  status: ('A' for Active; 'I' for Inactive)
REMARK    1  A    between atoms: _1  and  _5
REMARK    2  A    between atoms: _5  and  _6
REMARK    3  A    between atoms: _5  and  _8
REMARK    4  A    between atoms: _8  and  _9
REMARK    5  A    between atoms: _9  and  _10
REMARK    6  A    between atoms: _10  and  _11
REMARK    7  A    between atoms: _11  and  _12
REMARK    8  A    between atoms: _16  and  _18
REMARK    9  A    between atoms: _18  and  _19
REMARK   10  A    between atoms: _18  and  _21
REMARK   11  A    between atoms: _21  and  _22
REMARK   12  A    between atoms: _25  and  _27
REMARK   13  A    between atoms: _27  and  _28
REMARK   14  A    between atoms: _27  and  _30
REMARK   15  A    between atoms: _33  and  _35
REMARK   16  A    between atoms: _35  and  _36
REMARK   17  A    between atoms: _35  and  _38
REMARK   18  A    between atoms: _41  and  _43
REMARK   19  A    between atoms: _43  and  _44
REMARK   20  A    between atoms: _43  and  _46
REMARK   21  A    between atoms: _46  and  _47
REMARK   22  A    between atoms: _51  and  _52
REMARK   23  A    between atoms: _57  and  _59
REMARK   24  A    between atoms: _59  and  _60
REMARK   25  A    between atoms: _62  and  _64
REMARK   26  A    between atoms: _64  and  _65
REMARK   27  A    between atoms: _64  and  _67
REMARK   28  A    between atoms: _67  and  _68
REMARK   29  A    between atoms: _68  and  _69
REMARK   30  A    between atoms: _69  and  _70
REMARK   31  A    between atoms: _70  and  _71
REMARK   32  A    between atoms: _75  and  _77
REMARK   33  A    between atoms: _77  and  _78
REMARK   34  A    between atoms: _77  and  _80
REMARK   35  A    between atoms: _80  and  _81
REMARK   36  A    between atoms: _85  and  _86
REMARK   37  A    between atoms: _91  and  _93
REMARK   38  A    between atoms: _93  and  _94
REMARK   39  A    between atoms: _93  and  _96
REMARK   40  A    between atoms: _99  and  _101
REMARK   41  A    between atoms: _101  and  _102
REMARK   42  A    between atoms: _101  and  _104
REMARK   43  A    between atoms: _104  and  _105
REMARK   44  A    between atoms: _110  and  _111
REMARK   45  A    between atoms: _113  and  _115
REMARK   46  A    between atoms: _115  and  _116
REMARK   47  A    between atoms: _119  and  _121
REMARK   48  A    between atoms: _121  and  _122
REMARK   49  A    between atoms: _121  and  _124
REMARK   50  A    between atoms: _124  and  _125
REMARK   51  A    between atoms: _125  and  _126
REMARK   52  A    between atoms: _129  and  _131
REMARK   53  A    between atoms: _131  and  _132
REMARK   54  A    between atoms: _131  and  _134
REMARK   55  A    between atoms: _137  and  _139
REMARK   56  A    between atoms: _139  and  _140
REMARK   57  A    between atoms: _139  and  _142
REMARK   58  A    between atoms: _142  and  _143
REMARK   59  A    between atoms: _143  and  _144
REMARK   60  A    between atoms: _144  and  _145
REMARK   61  A    between atoms: _145  and  _146
REMARK   62  A    between atoms: _150  and  _152
REMARK   63  A    between atoms: _152  and  _153
REMARK   64  A    between atoms: _152  and  _155
REMARK   65  A    between atoms: _155  and  _156
REMARK   66  A    between atoms: _159  and  _161
REMARK   67  A    between atoms: _161  and  _162
REMARK   68  A    between atoms: _165  and  _167
REMARK   69  A    between atoms: _167  and  _168
REMARK   70  A    between atoms: _167  and  _170
REMARK   71  A    between atoms: _170  and  _171
REMARK   72  A    between atoms: _174  and  _176
REMARK   73  A    between atoms: _176  and  _177
REMARK   74  A    between atoms: _176  and  _179
REMARK   75  A    between atoms: _179  and  _180
REMARK   76  A    between atoms: _180  and  _181
REMARK   77  A    between atoms: _186  and  _188
REMARK   78  A    between atoms: _188  and  _189
REMARK   79  A    between atoms: _188  and  _191
REMARK   80  A    between atoms: _193  and  _195
REMARK   81  A    between atoms: _195  and  _196
REMARK   82  A    between atoms: _195  and  _198
REMARK   83  A    between atoms: _201  and  _203
REMARK   84  A    between atoms: _203  and  _204
REMARK   85  A    between atoms: _203  and  _206
REMARK   86  A    between atoms: _206  and  _207
REMARK   87  A    between atoms: _207  and  _208
REMARK   88  A    between atoms: _213  and  _215
REMARK   89  A    between atoms: _215  and  _216
REMARK   90  A    between atoms: _215  and  _218
REMARK   91  A    between atoms: _218  and  _219
REMARK   92  A    between atoms: _219  and  _220
REMARK   93  A    between atoms: _222  and  _224
REMARK   94  A    between atoms: _224  and  _225
REMARK   95  A    between atoms: _224  and  _227
REMARK   96  A    between atoms: _227  and  _228
REMARK   97  A    between atoms: _228  and  _229
REMARK   98  A    between atoms: _229  and  _230
REMARK   99  A    between atoms: _230  and  _231
REMARK  100  A    between atoms: _235  and  _237
REMARK  101  A    between atoms: _237  and  _238
REMARK  102  A    between atoms: _237  and  _240
REMARK  103  A    between atoms: _240  and  _241
REMARK  104  A    between atoms: _246  and  _248
REMARK  105  A    between atoms: _248  and  _249
REMARK  106  A    between atoms: _248  and  _251
REMARK  107  A    between atoms: _251  and  _252
REMARK  108  A    between atoms: _257  and  _259
REMARK  109  A    between atoms: _259  and  _260
REMARK  110  A    between atoms: _259  and  _262
REMARK  111  A    between atoms: _262  and  _263
REMARK  112  A    between atoms: _266  and  _268
REMARK  113  A    between atoms: _268  and  _269
REMARK  114  A    between atoms: _268  and  _271
REMARK  115  A    between atoms: _271  and  _272
REMARK  116  A    between atoms: _272  and  _273
REMARK  117  A    between atoms: _273  and  _274
REMARK  118  A    between atoms: _274  and  _275
REMARK  119  A    between atoms: _279  and  _281
REMARK  120  A    between atoms: _281  and  _282
REMARK  121  A    between atoms: _281  and  _284
REMARK  122  A    between atoms: _284  and  _285
REMARK  123  A    between atoms: _288  and  _290
REMARK  124  A    between atoms: _290  and  _291
REMARK  125  A    between atoms: _290  and  _293
REMARK  126  A    between atoms: _296  and  _298
REMARK  127  A    between atoms: _298  and  _299
REMARK  128  A    between atoms: _298  and  _301
REMARK  129  A    between atoms: _301  and  _302
REMARK  130  A    between atoms: _302  and  _303
REMARK  131  A    between atoms: _303  and  _304
REMARK  132  A    between atoms: _304  and  _305
REMARK                            x       y       z     vdW  Elec       q    Type
REMARK                         _______ _______ _______ _____ _____    ______ ____
ROOT
ATOM      1  C   ASN A   1      10.300   9.415 -20.509  0.00  0.00    +0.239 C 
ATOM      2  N   LEU A   2      10.164   8.552 -19.512  0.00  0.00    -0.298 N 
ATOM      3  H   LEU A   2       9.594   8.830 -18.688  0.00  0.00    +0.150 HD
ATOM      4  O   ASN A   1      10.987   9.193 -21.488  0.00  0.00    -0.274 OA
ENDROOT
BRANCH   1   5
ATOM      5  CA  ASN A   1       9.548  10.716 -20.338  0.00  0.00    +0.154 C 
BRANCH   5   6
ATOM      6  N   ASN A   1       8.152  10.471 -19.939  0.00  0.00    -0.238 NA
ATOM      7  H   ASN A   1       7.774  11.007 -19.132  0.00  0.00    +0.142 HD
ENDBRANCH   5   6
BRANCH   5   8
ATOM      8  CB  ASN A   1      10.272  11.514 -19.263  0.00  0.00    +0.111 C 
BRANCH   8   9
ATOM      9  CG  ASN A   1       9.832  12.984 -19.184  0.00  0.00    +0.221 C 
ATOM     10  ND2 ASN A   1      10.239  13.669 -18.100  0.00  0.00    -0.329 N 
ATOM     11 HD21 ASN A   1      10.824  13.201 -17.379  0.00  0.00    +0.145 HD
ATOM     12 HD22 ASN A   1       9.969  14.666 -17.983  0.00  0.00    +0.145 HD
ATOM     13  OD1 ASN A   1       9.140  13.495 -20.062  0.00  0.00    -0.275 OA
ENDBRANCH   8   9
ENDBRANCH   5   8
ENDBRANCH   1   5
BRANCH   2  14
ATOM     14  CA  LEU A   2      10.774   7.242 -19.522  0.00  0.00    +0.137 C 
BRANCH  14  15
ATOM     15  C   LEU A   2      10.263   6.382 -20.673  0.00  0.00    +0.227 C 
ATOM     16  O   LEU A   2      11.042   5.795 -21.410  0.00  0.00    -0.286 OA
ENDBRANCH  14  15
BRANCH  14  17
ATOM     17  CB  LEU A   2      10.498   6.555 -18.181  0.00  0.00    +0.028 C 
BRANCH  17  18
ATOM     18  CG  LEU A   2      11.296   5.263 -17.943  0.00  0.00    +0.002 C 
ATOM     19  CD2 LEU A   2      11.006   4.657 -16.579  0.00  0.00    +0.000 C 
ATOM     20  CD1 LEU A   2      12.802   5.563 -18.071  0.00  0.00    +0.000 C 
ENDBRANCH  17  18
ENDBRANCH  14  17
ENDBRANCH   2  14
TORSDOF 8
REMARK  Name = ../refined-set-2016/3qx9/3qx9_pocket.pdb
REMARK  132 active torsions:
REMARK  status: ('A' for Active; 'I' for Inactive)
REMARK    1  A    between atoms: _1  and  _5
REMARK    2  A    between atoms: _5  and  _6
REMARK    3  A    between atoms: _5  and  _8
REMARK    4  A    between atoms: _8  and  _9
REMARK    5  A    between atoms: _9  and  _10
REMARK    6  A    between atoms: _10  and  _11
REMARK    7  A    between atoms: _11  and  _12
REMARK    8  A    between atoms: _16  and  _18
REMARK    9  A    between atoms: _18  and  _19
REMARK   10  A    between atoms: _18  and  _21
REMARK   11  A    between atoms: _21  and  _22
REMARK   12  A    between atoms: _25  and  _27
REMARK   13  A    between atoms: _27  and  _28
REMARK   14  A    between atoms: _27  and  _30
REMARK   15  A    between atoms: _33  and  _35
REMARK   16  A    between atoms: _35  and  _36
REMARK   17  A    between atoms: _35  and  _38
REMARK   18  A    between atoms: _41  and  _43
REMARK   19  A    between atoms: _43  and  _44
REMARK   20  A    between atoms: _43  and  _46
REMARK   21  A    between atoms: _46  and  _47
REMARK   22  A    between atoms: _51  and  _52
REMARK   23  A    between atoms: _57  and  _59
REMARK   24  A    between atoms: _59  and  _60
REMARK   25  A    between atoms: _62  and  _64
REMARK   26  A    between atoms: _64  and  _65
REMARK   27  A    between atoms: _64  and  _67
REMARK   28  A    between atoms: _67  and  _68
REMARK   29  A    between atoms: _68  and  _69
REMARK   30  A    between atoms: _69  and  _70
REMARK   31  A    between atoms: _70  and  _71
REMARK   32  A    between atoms: _75  and  _77
REMARK   33  A    between atoms: _77  and  _78
REMARK   34  A    between atoms: _77  and  _80
REMARK   35  A    between atoms: _80  and  _81
REMARK   36  A    between atoms: _85  and  _86
REMARK   37  A    between atoms: _91  and  _93
REMARK   38  A    between atoms: _93  and  _94
REMARK   39  A    between atoms: _93  and  _96
REMARK   40  A    between atoms: _99  and  _101
REMARK   41  A    between atoms: _101  and  _102
REMARK   42  A    between atoms: _101  and  _104
REMARK   43  A    between atoms: _104  and  _105
REMARK   44  A    between atoms: _110  and  _111
REMARK   45  A    between atoms: _113  and  _115
REMARK   46  A    between atoms: _115  and  _116
REMARK   47  A    between atoms: _119  and  _121
REMARK   48  A    between atoms: _121  and  _122
REMARK   49  A    between atoms: _121  and  _124
REMARK   50  A    between atoms: _124  and  _125
REMARK   51  A    between atoms: _125  and  _126
REMARK   52  A    between atoms: _129  and  _131
REMARK   53  A    between atoms: _131  and  _132
REMARK   54  A    between atoms: _131  and  _134
REMARK   55  A    between atoms: _137  and  _139
REMARK   56  A    between atoms: _139  and  _140
REMARK   57  A    between atoms: _139  and  _142
REMARK   58  A    between atoms: _142  and  _143
REMARK   59  A    between atoms: _143  and  _144
REMARK   60  A    between atoms: _144  and  _145
REMARK   61  A    between atoms: _145  and  _146
REMARK   62  A    between atoms: _150  and  _152
REMARK   63  A    between atoms: _152  and  _153
REMARK   64  A    between atoms: _152  and  _155
REMARK   65  A    between atoms: _155  and  _156
REMARK   66  A    between atoms: _159  and  _161
REMARK   67  A    between atoms: _161  and  _162
REMARK   68  A    between atoms: _165  and  _167
REMARK   69  A    between atoms: _167  and  _168
REMARK   70  A    between atoms: _167  and  _170
REMARK   71  A    between atoms: _170  and  _171
REMARK   72  A    between atoms: _174  and  _176
REMARK   73  A    between atoms: _176  and  _177
REMARK   74  A    between atoms: _176  and  _179
REMARK   75  A    between atoms: _179  and  _180
REMARK   76  A    between atoms: _180  and  _181
REMARK   77  A    between atoms: _186  and  _188
REMARK   78  A    between atoms: _188  and  _189
REMARK   79  A    between atoms: _188  and  _191
REMARK   80  A    between atoms: _193  and  _195
REMARK   81  A    between atoms: _195  and  _196
REMARK   82  A    between atoms: _195  and  _198
REMARK   83  A    between atoms: _201  and  _203
REMARK   84  A    between atoms: _203  and  _204
REMARK   85  A    between atoms: _203  and  _206
REMARK   86  A    between atoms: _206  and  _207
REMARK   87  A    between atoms: _207  and  _208
REMARK   88  A    between atoms: _213  and  _215
REMARK   89  A    between atoms: _215  and  _216
REMARK   90  A    between atoms: _215  and  _218
REMARK   91  A    between atoms: _218  and  _219
REMARK   92  A    between atoms: _219  and  _220
REMARK   93  A    between atoms: _222  and  _224
REMARK   94  A    between atoms: _224  and  _225
REMARK   95  A    between atoms: _224  and  _227
REMARK   96  A    between atoms: _227  and  _228
REMARK   97  A    between atoms: _228  and  _229
REMARK   98  A    between atoms: _229  and  _230
REMARK   99  A    between atoms: _230  and  _231
REMARK  100  A    between atoms: _235  and  _237
REMARK  101  A    between atoms: _237  and  _238
REMARK  102  A    between atoms: _237  and  _240
REMARK  103  A    between atoms: _240  and  _241
REMARK  104  A    between atoms: _246  and  _248
REMARK  105  A    between atoms: _248  and  _249
REMARK  106  A    between atoms: _248  and  _251
REMARK  107  A    between atoms: _251  and  _252
REMARK  108  A    between atoms: _257  and  _259
REMARK  109  A    between atoms: _259  and  _260
REMARK  110  A    between atoms: _259  and  _262
REMARK  111  A    between atoms: _262  and  _263
REMARK  112  A    between atoms: _266  and  _268
REMARK  113  A    between atoms: _268  and  _269
REMARK  114  A    between atoms: _268  and  _271
REMARK  115  A    between atoms: _271  and  _272
REMARK  116  A    between atoms: _272  and  _273
REMARK  117  A    between atoms: _273  and  _274
REMARK  118  A    between atoms: _274  and  _275
REMARK  119  A    between atoms: _279  and  _281
REMARK  120  A    between atoms: _281  and  _282
REMARK  121  A    between atoms: _281  and  _284
REMARK  122  A    between atoms: _284  and  _285
REMARK  123  A    between atoms: _288  and  _290
REMARK  124  A    between atoms: _290  and  _291
REMARK  125  A    between atoms: _290  and  _293
REMARK  126  A    between atoms: _296  and  _298
REMARK  127  A    between atoms: _298  and  _299
REMARK  128  A    between atoms: _298  and  _301
REMARK  129  A    between atoms: _301  and  _302
REMARK  130  A    between atoms: _302  and  _303
REMARK  131  A    between atoms: _303  and  _304
REMARK  132  A    between atoms: _304  and  _305
REMARK                            x       y       z     vdW  Elec       q    Type
REMARK                         _______ _______ _______ _____ _____    ______ ____
ROOT
ATOM      1  CA  LYS A   1      13.100   7.096 -24.111  0.00  0.00    +0.145 C 
ENDROOT
BRANCH   1   2
ATOM      2  C   LYS A   1      13.235   5.603 -24.406  0.00  0.00    +0.238 C 
ATOM      3  N   ILE A   2      12.455   4.797 -23.687  0.00  0.00    -0.298 N 
ATOM      4  H   ILE A   2      11.891   5.189 -22.906  0.00  0.00    +0.150 HD
ATOM      5  O   LYS A   1      14.018   5.196 -25.267  0.00  0.00    -0.274 OA
BRANCH   3   6
ATOM      6  CA  ILE A   2      12.383   3.379 -23.981  0.00  0.00    +0.137 C 
BRANCH   6   7
ATOM      7  CB  ILE A   2      11.537   2.611 -22.966  0.00  0.00    +0.026 C 
ATOM      8  CG2 ILE A   2      11.424   1.159 -23.403  0.00  0.00    +0.002 C 
BRANCH   7   9
ATOM      9  CG1 ILE A   2      12.207   2.662 -21.580  0.00  0.00    +0.002 C 
ATOM     10  CD1 ILE A   2      11.345   2.294 -20.350  0.00  0.00    +0.000 C 
ENDBRANCH   7   9
ENDBRANCH   6   7
BRANCH   6  11
ATOM     11  C   ILE A   2      11.912   3.128 -25.396  0.00  0.00    +0.227 C 
ATOM     12  O   ILE A   2      12.447   2.273 -26.100  0.00  0.00    -0.286 OA
ENDBRANCH   6  11
ENDBRANCH   3   6
ENDBRANCH   1   2
BRANCH   1  13
ATOM     13  N   LYS A   1      11.706   7.555 -23.972  0.00  0.00    -0.238 NA
ATOM     14  H   LYS A   1      11.385   7.931 -23.057  0.00  0.00    +0.142 HD
ENDBRANCH   1  13
BRANCH   1  15
ATOM     15  CB  LYS A   1      13.913   7.420 -22.855  0.00  0.00    +0.026 C 
BRANCH  15  16
ATOM     16  CG  LYS A   1      14.171   8.912 -22.672  0.00  0.00    -0.000 C 
BRANCH  16  17
ATOM     17  CD  LYS A   1      14.622   9.178 -21.248  0.00  0.00    -0.024 C 
BRANCH  17  18
ATOM     18  CE  LYS A   1      15.406  10.485 -21.111  0.00  0.00    -0.086 C 
BRANCH  18  19
ATOM     19  NZ  LYS A   1      15.558  10.707 -19.630  0.00  0.00    +0.380 N 
ATOM     20  HZ1 LYS A   1      14.617  10.780 -19.193  0.00  0.00    -0.089 HD
ATOM     21  HZ2 LYS A   1      16.075   9.907 -19.212  0.00  0.00    -0.089 HD
ATOM     22  HZ3 LYS A   1      16.087  11.587 -19.465  0.00  0.00    -0.089 HD
ENDBRANCH  18  19
ENDBRANCH  17  18
ENDBRANCH  16  17
ENDBRANCH  15  16
ENDBRANCH   1  15
TORSDOF 11
REMARK  Name = ../refined-set-2016/3qx9/3qx9_pocket.pdb
REMARK  132 active torsions:
REMARK  status: ('A' for Active; 'I' for Inactive)
REMARK    1  A    between atoms: _1  and  _5
REMARK    2  A    between atoms: _5  and  _6
REMARK    3  A    between atoms: _5  and  _8
REMARK    4  A    between atoms: _8  and  _9
REMARK    5  A    between atoms: _9  and  _10
REMARK    6  A    between atoms: _10  and  _11
REMARK    7  A    between atoms: _11  and  _12
REMARK    8  A    between atoms: _16  and  _18
REMARK    9  A    between atoms: _18  and  _19
REMARK   10  A    between atoms: _18  and  _21
REMARK   11  A    between atoms: _21  and  _22
REMARK   12  A    between atoms: _25  and  _27
REMARK   13  A    between atoms: _27  and  _28
REMARK   14  A    between atoms: _27  and  _30
REMARK   15  A    between atoms: _33  and  _35
REMARK   16  A    between atoms: _35  and  _36
REMARK   17  A    between atoms: _35  and  _38
REMARK   18  A    between atoms: _41  and  _43
REMARK   19  A    between atoms: _43  and  _44
REMARK   20  A    between atoms: _43  and  _46
REMARK   21  A    between atoms: _46  and  _47
REMARK   22  A    between atoms: _51  and  _52
REMARK   23  A    between atoms: _57  and  _59
REMARK   24  A    between atoms: _59  and  _60
REMARK   25  A    between atoms: _62  and  _64
REMARK   26  A    between atoms: _64  and  _65
REMARK   27  A    between atoms: _64  and  _67
REMARK   28  A    between atoms: _67  and  _68
REMARK   29  A    between atoms: _68  and  _69
REMARK   30  A    between atoms: _69  and  _70
REMARK   31  A    between atoms: _70  and  _71
REMARK   32  A    between atoms: _75  and  _77
REMARK   33  A    between atoms: _77  and  _78
REMARK   34  A    between atoms: _77  and  _80
REMARK   35  A    between atoms: _80  and  _81
REMARK   36  A    between atoms: _85  and  _86
REMARK   37  A    between atoms: _91  and  _93
REMARK   38  A    between atoms: _93  and  _94
REMARK   39  A    between atoms: _93  and  _96
REMARK   40  A    between atoms: _99  and  _101
REMARK   41  A    between atoms: _101  and  _102
REMARK   42  A    between atoms: _101  and  _104
REMARK   43  A    between atoms: _104  and  _105
REMARK   44  A    between atoms: _110  and  _111
REMARK   45  A    between atoms: _113  and  _115
REMARK   46  A    between atoms: _115  and  _116
REMARK   47  A    between atoms: _119  and  _121
REMARK   48  A    between atoms: _121  and  _122
REMARK   49  A    between atoms: _121  and  _124
REMARK   50  A    between atoms: _124  and  _125
REMARK   51  A    between atoms: _125  and  _126
REMARK   52  A    between atoms: _129  and  _131
REMARK   53  A    between atoms: _131  and  _132
REMARK   54  A    between atoms: _131  and  _134
REMARK   55  A    between atoms: _137  and  _139
REMARK   56  A    between atoms: _139  and  _140
REMARK   57  A    between atoms: _139  and  _142
REMARK   58  A    between atoms: _142  and  _143
REMARK   59  A    between atoms: _143  and  _144
REMARK   60  A    between atoms: _144  and  _145
REMARK   61  A    between atoms: _145  and  _146
REMARK   62  A    between atoms: _150  and  _152
REMARK   63  A    between atoms: _152  and  _153
REMARK   64  A    between atoms: _152  and  _155
REMARK   65  A    between atoms: _155  and  _156
REMARK   66  A    between atoms: _159  and  _161
REMARK   67  A    between atoms: _161  and  _162
REMARK   68  A    between atoms: _165  and  _167
REMARK   69  A    between atoms: _167  and  _168
REMARK   70  A    between atoms: _167  and  _170
REMARK   71  A    between atoms: _170  and  _171
REMARK   72  A    between atoms: _174  and  _176
REMARK   73  A    between atoms: _176  and  _177
REMARK   74  A    between atoms: _176  and  _179
REMARK   75  A    between atoms: _179  and  _180
REMARK   76  A    between atoms: _180  and  _181
REMARK   77  A    between atoms: _186  and  _188
REMARK   78  A    between atoms: _188  and  _189
REMARK   79  A    between atoms: _188  and  _191
REMARK   80  A    between atoms: _193  and  _195
REMARK   81  A    between atoms: _195  and  _196
REMARK   82  A    between atoms: _195  and  _198
REMARK   83  A    between atoms: _201  and  _203
REMARK   84  A    between atoms: _203  and  _204
REMARK   85  A    between atoms: _203  and  _206
REMARK   86  A    between atoms: _206  and  _207
REMARK   87  A    between atoms: _207  and  _208
REMARK   88  A    between atoms: _213  and  _215
REMARK   89  A    between atoms: _215  and  _216
REMARK   90  A    between atoms: _215  and  _218
REMARK   91  A    between atoms: _218  and  _219
REMARK   92  A    between atoms: _219  and  _220
REMARK   93  A    between atoms: _222  and  _224
REMARK   94  A    between atoms: _224  and  _225
REMARK   95  A    between atoms: _224  and  _227
REMARK   96  A    between atoms: _227  and  _228
REMARK   97  A    between atoms: _228  and  _229
REMARK   98  A    between atoms: _229  and  _230
REMARK   99  A    between atoms: _230  and  _231
REMARK  100  A    between atoms: _235  and  _237
REMARK  101  A    between atoms: _237  and  _238
REMARK  102  A    between atoms: _237  and  _240
REMARK  103  A    between atoms: _240  and  _241
REMARK  104  A    between atoms: _246  and  _248
REMARK  105  A    between atoms: _248  and  _249
REMARK  106  A    between atoms: _248  and  _251
REMARK  107  A    between atoms: _251  and  _252
REMARK  108  A    between atoms: _257  and  _259
REMARK  109  A    between atoms: _259  and  _260
REMARK  110  A    between atoms: _259  and  _262
REMARK  111  A    between atoms: _262  and  _263
REMARK  112  A    between atoms: _266  and  _268
REMARK  113  A    between atoms: _268  and  _269
REMARK  114  A    between atoms: _268  and  _271
REMARK  115  A    between atoms: _271  and  _272
REMARK  116  A    between atoms: _272  and  _273
REMARK  117  A    between atoms: _273  and  _274
REMARK  118  A    between atoms: _274  and  _275
REMARK  119  A    between atoms: _279  and  _281
REMARK  120  A    between atoms: _281  and  _282
REMARK  121  A    between atoms: _281  and  _284
REMARK  122  A    between atoms: _284  and  _285
REMARK  123  A    between atoms: _288  and  _290
REMARK  124  A    between atoms: _290  and  _291
REMARK  125  A    between atoms: _290  and  _293
REMARK  126  A    between atoms: _296  and  _298
REMARK  127  A    between atoms: _298  and  _299
REMARK  128  A    between atoms: _298  and  _301
REMARK  129  A    between atoms: _301  and  _302
REMARK  130  A    between atoms: _302  and  _303
REMARK  131  A    between atoms: _303  and  _304
REMARK  132  A    between atoms: _304  and  _305
REMARK                            x       y       z     vdW  Elec       q    Type
REMARK                         _______ _______ _______ _____ _____    ______ ____
ROOT
ATOM      1  CA  LYS A   2      15.785   2.650 -27.900  0.00  0.00    +0.137 C 
ENDROOT
BRANCH   1   3
ATOM      2  C   VAL A   1      14.302   4.180 -29.115  0.00  0.00    +0.238 C 
ATOM      3  N   LYS A   2      14.743   3.676 -27.974  0.00  0.00    -0.298 N 
ATOM      4  H   LYS A   2      14.329   4.026 -27.086  0.00  0.00    +0.150 HD
ATOM      5  O   VAL A   1      14.673   3.789 -30.222  0.00  0.00    -0.274 OA
BRANCH   2   6
ATOM      6  CA  VAL A   1      13.246   5.290 -29.010  0.00  0.00    +0.145 C 
BRANCH   6   7
ATOM      7  CB  VAL A   1      13.880   6.634 -28.667  0.00  0.00    +0.025 C 
ATOM      8  CG2 VAL A   1      12.909   7.727 -29.075  0.00  0.00    +0.002 C 
ATOM      9  CG1 VAL A   1      15.217   6.787 -29.354  0.00  0.00    +0.002 C 
ENDBRANCH   6   7
BRANCH   6  10
ATOM     10  N   VAL A   1      12.182   4.976 -28.079  0.00  0.00    -0.238 NA
ATOM     11  H   VAL A   1      11.998   5.618 -27.282  0.00  0.00    +0.142 HD
ENDBRANCH   6  10
ENDBRANCH   2   6
ENDBRANCH   1   3
BRANCH   1  12
ATOM     12  C   LYS A   2      15.344   1.339 -28.541  0.00  0.00    +0.227 C 
ATOM     13  O   LYS A   2      16.044   0.796 -29.391  0.00  0.00    -0.286 OA
ENDBRANCH   1  12
BRANCH   1  14
ATOM     14  CB  LYS A   2      16.237   2.424 -26.449  0.00  0.00    +0.028 C 
BRANCH  14  15
ATOM     15  CG  LYS A   2      16.818   3.681 -25.850  0.00  0.00    -0.000 C 
BRANCH  15  16
ATOM     16  CD  LYS A   2      17.371   3.491 -24.479  0.00  0.00    -0.024 C 
BRANCH  16  17
ATOM     17  CE  LYS A   2      18.497   4.493 -24.233  0.00  0.00    -0.086 C 
BRANCH  17  18
ATOM     18  NZ  LYS A   2      18.772   4.787 -22.807  0.00  0.00    +0.380 N 
ATOM     19  HZ1 LYS A   2      19.041   3.909 -22.319  0.00  0.00    -0.089 HD
ATOM     20  HZ2 LYS A   2      17.918   5.183 -22.365  0.00  0.00    -0.089 HD
ATOM     21  HZ3 LYS A   2      19.549   5.475 -22.740  0.00  0.00    -0.089 HD
ENDBRANCH  17  18
ENDBRANCH  16  17
ENDBRANCH  15  16
ENDBRANCH  14  15
ENDBRANCH   1  14
TORSDOF 10
REMARK  Name = ../refined-set-2016/3qx9/3qx9_pocket.pdb
REMARK  132 active torsions:
REMARK  status: ('A' for Active; 'I' for Inactive)
REMARK    1  A    between atoms: _1  and  _5
REMARK    2  A    between atoms: _5  and  _6
REMARK    3  A    between atoms: _5  and  _8
REMARK    4  A    between atoms: _8  and  _9
REMARK    5  A    between atoms: _9  and  _10
REMARK    6  A    between atoms: _10  and  _11
REMARK    7  A    between atoms: _11  and  _12
REMARK    8  A    between atoms: _16  and  _18
REMARK    9  A    between atoms: _18  and  _19
REMARK   10  A    between atoms: _18  and  _21
REMARK   11  A    between atoms: _21  and  _22
REMARK   12  A    between atoms: _25  and  _27
REMARK   13  A    between atoms: _27  and  _28
REMARK   14  A    between atoms: _27  and  _30
REMARK   15  A    between atoms: _33  and  _35
REMARK   16  A    between atoms: _35  and  _36
REMARK   17  A    between atoms: _35  and  _38
REMARK   18  A    between atoms: _41  and  _43
REMARK   19  A    between atoms: _43  and  _44
REMARK   20  A    between atoms: _43  and  _46
REMARK   21  A    between atoms: _46  and  _47
REMARK   22  A    between atoms: _51  and  _52
REMARK   23  A    between atoms: _57  and  _59
REMARK   24  A    between atoms: _59  and  _60
REMARK   25  A    between atoms: _62  and  _64
REMARK   26  A    between atoms: _64  and  _65
REMARK   27  A    between atoms: _64  and  _67
REMARK   28  A    between atoms: _67  and  _68
REMARK   29  A    between atoms: _68  and  _69
REMARK   30  A    between atoms: _69  and  _70
REMARK   31  A    between atoms: _70  and  _71
REMARK   32  A    between atoms: _75  and  _77
REMARK   33  A    between atoms: _77  and  _78
REMARK   34  A    between atoms: _77  and  _80
REMARK   35  A    between atoms: _80  and  _81
REMARK   36  A    between atoms: _85  and  _86
REMARK   37  A    between atoms: _91  and  _93
REMARK   38  A    between atoms: _93  and  _94
REMARK   39  A    between atoms: _93  and  _96
REMARK   40  A    between atoms: _99  and  _101
REMARK   41  A    between atoms: _101  and  _102
REMARK   42  A    between atoms: _101  and  _104
REMARK   43  A    between atoms: _104  and  _105
REMARK   44  A    between atoms: _110  and  _111
REMARK   45  A    between atoms: _113  and  _115
REMARK   46  A    between atoms: _115  and  _116
REMARK   47  A    between atoms: _119  and  _121
REMARK   48  A    between atoms: _121  and  _122
REMARK   49  A    between atoms: _121  and  _124
REMARK   50  A    between atoms: _124  and  _125
REMARK   51  A    between atoms: _125  and  _126
REMARK   52  A    between atoms: _129  and  _131
REMARK   53  A    between atoms: _131  and  _132
REMARK   54  A    between atoms: _131  and  _134
REMARK   55  A    between atoms: _137  and  _139
REMARK   56  A    between atoms: _139  and  _140
REMARK   57  A    between atoms: _139  and  _142
REMARK   58  A    between atoms: _142  and  _143
REMARK   59  A    between atoms: _143  and  _144
REMARK   60  A    between atoms: _144  and  _145
REMARK   61  A    between atoms: _145  and  _146
REMARK   62  A    between atoms: _150  and  _152
REMARK   63  A    between atoms: _152  and  _153
REMARK   64  A    between atoms: _152  and  _155
REMARK   65  A    between atoms: _155  and  _156
REMARK   66  A    between atoms: _159  and  _161
REMARK   67  A    between atoms: _161  and  _162
REMARK   68  A    between atoms: _165  and  _167
REMARK   69  A    between atoms: _167  and  _168
REMARK   70  A    between atoms: _167  and  _170
REMARK   71  A    between atoms: _170  and  _171
REMARK   72  A    between atoms: _174  and  _176
REMARK   73  A    between atoms: _176  and  _177
REMARK   74  A    between atoms: _176  and  _179
REMARK   75  A    between atoms: _179  and  _180
REMARK   76  A    between atoms: _180  and  _181
REMARK   77  A    between atoms: _186  and  _188
REMARK   78  A    between atoms: _188  and  _189
REMARK   79  A    between atoms: _188  and  _191
REMARK   80  A    between atoms: _193  and  _195
REMARK   81  A    between atoms: _195  and  _196
REMARK   82  A    between atoms: _195  and  _198
REMARK   83  A    between atoms: _201  and  _203
REMARK   84  A    between atoms: _203  and  _204
REMARK   85  A    between atoms: _203  and  _206
REMARK   86  A    between atoms: _206  and  _207
REMARK   87  A    between atoms: _207  and  _208
REMARK   88  A    between atoms: _213  and  _215
REMARK   89  A    between atoms: _215  and  _216
REMARK   90  A    between atoms: _215  and  _218
REMARK   91  A    between atoms: _218  and  _219
REMARK   92  A    between atoms: _219  and  _220
REMARK   93  A    between atoms: _222  and  _224
REMARK   94  A    between atoms: _224  and  _225
REMARK   95  A    between atoms: _224  and  _227
REMARK   96  A    between atoms: _227  and  _228
REMARK   97  A    between atoms: _228  and  _229
REMARK   98  A    between atoms: _229  and  _230
REMARK   99  A    between atoms: _230  and  _231
REMARK  100  A    between atoms: _235  and  _237
REMARK  101  A    between atoms: _237  and  _238
REMARK  102  A    between atoms: _237  and  _240
REMARK  103  A    between atoms: _240  and  _241
REMARK  104  A    between atoms: _246  and  _248
REMARK  105  A    between atoms: _248  and  _249
REMARK  106  A    between atoms: _248  and  _251
REMARK  107  A    between atoms: _251  and  _252
REMARK  108  A    between atoms: _257  and  _259
REMARK  109  A    between atoms: _259  and  _260
REMARK  110  A    between atoms: _259  and  _262
REMARK  111  A    between atoms: _262  and  _263
REMARK  112  A    between atoms: _266  and  _268
REMARK  113  A    between atoms: _268  and  _269
REMARK  114  A    between atoms: _268  and  _271
REMARK  115  A    between atoms: _271  and  _272
REMARK  116  A    between atoms: _272  and  _273
REMARK  117  A    between atoms: _273  and  _274
REMARK  118  A    between atoms: _274  and  _275
REMARK  119  A    between atoms: _279  and  _281
REMARK  120  A    between atoms: _281  and  _282
REMARK  121  A    between atoms: _281  and  _284
REMARK  122  A    between atoms: _284  and  _285
REMARK  123  A    between atoms: _288  and  _290
REMARK  124  A    between atoms: _290  and  _291
REMARK  125  A    between atoms: _290  and  _293
REMARK  126  A    between atoms: _296  and  _298
REMARK  127  A    between atoms: _298  and  _299
REMARK  128  A    between atoms: _298  and  _301
REMARK  129  A    between atoms: _301  and  _302
REMARK  130  A    between atoms: _302  and  _303
REMARK  131  A    between atoms: _303  and  _304
REMARK  132  A    between atoms: _304  and  _305
REMARK                            x       y       z     vdW  Elec       q    Type
REMARK                         _______ _______ _______ _____ _____    ______ ____
ROOT
ATOM      1  O   HOH     1      17.318  11.076  -7.391  0.00  0.00    +0.000 OA
ENDROOT
TORSDOF 0
REMARK  Name = ../refined-set-2016/3qx9/3qx9_pocket.pdb
REMARK  132 active torsions:
REMARK  status: ('A' for Active; 'I' for Inactive)
REMARK    1  A    between atoms: _1  and  _5
REMARK    2  A    between atoms: _5  and  _6
REMARK    3  A    between atoms: _5  and  _8
REMARK    4  A    between atoms: _8  and  _9
REMARK    5  A    between atoms: _9  and  _10
REMARK    6  A    between atoms: _10  and  _11
REMARK    7  A    between atoms: _11  and  _12
REMARK    8  A    between atoms: _16  and  _18
REMARK    9  A    between atoms: _18  and  _19
REMARK   10  A    between atoms: _18  and  _21
REMARK   11  A    between atoms: _21  and  _22
REMARK   12  A    between atoms: _25  and  _27
REMARK   13  A    between atoms: _27  and  _28
REMARK   14  A    between atoms: _27  and  _30
REMARK   15  A    between atoms: _33  and  _35
REMARK   16  A    between atoms: _35  and  _36
REMARK   17  A    between atoms: _35  and  _38
REMARK   18  A    between atoms: _41  and  _43
REMARK   19  A    between atoms: _43  and  _44
REMARK   20  A    between atoms: _43  and  _46
REMARK   21  A    between atoms: _46  and  _47
REMARK   22  A    between atoms: _51  and  _52
REMARK   23  A    between atoms: _57  and  _59
REMARK   24  A    between atoms: _59  and  _60
REMARK   25  A    between atoms: _62  and  _64
REMARK   26  A    between atoms: _64  and  _65
REMARK   27  A    between atoms: _64  and  _67
REMARK   28  A    between atoms: _67  and  _68
REMARK   29  A    between atoms: _68  and  _69
REMARK   30  A    between atoms: _69  and  _70
REMARK   31  A    between atoms: _70  and  _71
REMARK   32  A    between atoms: _75  and  _77
REMARK   33  A    between atoms: _77  and  _78
REMARK   34  A    between atoms: _77  and  _80
REMARK   35  A    between atoms: _80  and  _81
REMARK   36  A    between atoms: _85  and  _86
REMARK   37  A    between atoms: _91  and  _93
REMARK   38  A    between atoms: _93  and  _94
REMARK   39  A    between atoms: _93  and  _96
REMARK   40  A    between atoms: _99  and  _101
REMARK   41  A    between atoms: _101  and  _102
REMARK   42  A    between atoms: _101  and  _104
REMARK   43  A    between atoms: _104  and  _105
REMARK   44  A    between atoms: _110  and  _111
REMARK   45  A    between atoms: _113  and  _115
REMARK   46  A    between atoms: _115  and  _116
REMARK   47  A    between atoms: _119  and  _121
REMARK   48  A    between atoms: _121  and  _122
REMARK   49  A    between atoms: _121  and  _124
REMARK   50  A    between atoms: _124  and  _125
REMARK   51  A    between atoms: _125  and  _126
REMARK   52  A    between atoms: _129  and  _131
REMARK   53  A    between atoms: _131  and  _132
REMARK   54  A    between atoms: _131  and  _134
REMARK   55  A    between atoms: _137  and  _139
REMARK   56  A    between atoms: _139  and  _140
REMARK   57  A    between atoms: _139  and  _142
REMARK   58  A    between atoms: _142  and  _143
REMARK   59  A    between atoms: _143  and  _144
REMARK   60  A    between atoms: _144  and  _145
REMARK   61  A    between atoms: _145  and  _146
REMARK   62  A    between atoms: _150  and  _152
REMARK   63  A    between atoms: _152  and  _153
REMARK   64  A    between atoms: _152  and  _155
REMARK   65  A    between atoms: _155  and  _156
REMARK   66  A    between atoms: _159  and  _161
REMARK   67  A    between atoms: _161  and  _162
REMARK   68  A    between atoms: _165  and  _167
REMARK   69  A    between atoms: _167  and  _168
REMARK   70  A    between atoms: _167  and  _170
REMARK   71  A    between atoms: _170  and  _171
REMARK   72  A    between atoms: _174  and  _176
REMARK   73  A    between atoms: _176  and  _177
REMARK   74  A    between atoms: _176  and  _179
REMARK   75  A    between atoms: _179  and  _180
REMARK   76  A    between atoms: _180  and  _181
REMARK   77  A    between atoms: _186  and  _188
REMARK   78  A    between atoms: _188  and  _189
REMARK   79  A    between atoms: _188  and  _191
REMARK   80  A    between atoms: _193  and  _195
REMARK   81  A    between atoms: _195  and  _196
REMARK   82  A    between atoms: _195  and  _198
REMARK   83  A    between atoms: _201  and  _203
REMARK   84  A    between atoms: _203  and  _204
REMARK   85  A    between atoms: _203  and  _206
REMARK   86  A    between atoms: _206  and  _207
REMARK   87  A    between atoms: _207  and  _208
REMARK   88  A    between atoms: _213  and  _215
REMARK   89  A    between atoms: _215  and  _216
REMARK   90  A    between atoms: _215  and  _218
REMARK   91  A    between atoms: _218  and  _219
REMARK   92  A    between atoms: _219  and  _220
REMARK   93  A    between atoms: _222  and  _224
REMARK   94  A    between atoms: _224  and  _225
REMARK   95  A    between atoms: _224  and  _227
REMARK   96  A    between atoms: _227  and  _228
REMARK   97  A    between atoms: _228  and  _229
REMARK   98  A    between atoms: _229  and  _230
REMARK   99  A    between atoms: _230  and  _231
REMARK  100  A    between atoms: _235  and  _237
REMARK  101  A    between atoms: _237  and  _238
REMARK  102  A    between atoms: _237  and  _240
REMARK  103  A    between atoms: _240  and  _241
REMARK  104  A    between atoms: _246  and  _248
REMARK  105  A    between atoms: _248  and  _249
REMARK  106  A    between atoms: _248  and  _251
REMARK  107  A    between atoms: _251  and  _252
REMARK  108  A    between atoms: _257  and  _259
REMARK  109  A    between atoms: _259  and  _260
REMARK  110  A    between atoms: _259  and  _262
REMARK  111  A    between atoms: _262  and  _263
REMARK  112  A    between atoms: _266  and  _268
REMARK  113  A    between atoms: _268  and  _269
REMARK  114  A    between atoms: _268  and  _271
REMARK  115  A    between atoms: _271  and  _272
REMARK  116  A    between atoms: _272  and  _273
REMARK  117  A    between atoms: _273  and  _274
REMARK  118  A    between atoms: _274  and  _275
REMARK  119  A    between atoms: _279  and  _281
REMARK  120  A    between atoms: _281  and  _282
REMARK  121  A    between atoms: _281  and  _284
REMARK  122  A    between atoms: _284  and  _285
REMARK  123  A    between atoms: _288  and  _290
REMARK  124  A    between atoms: _290  and  _291
REMARK  125  A    between atoms: _290  and  _293
REMARK  126  A    between atoms: _296  and  _298
REMARK  127  A    between atoms: _298  and  _299
REMARK  128  A    between atoms: _298  and  _301
REMARK  129  A    between atoms: _301  and  _302
REMARK  130  A    between atoms: _302  and  _303
REMARK  131  A    between atoms: _303  and  _304
REMARK  132  A    between atoms: _304  and  _305
REMARK                            x       y       z     vdW  Elec       q    Type
REMARK                         _______ _______ _______ _____ _____    ______ ____
ROOT
ATOM      1  O   HOH     1      23.099   0.658 -22.326  0.00  0.00    +0.000 OA
ENDROOT
TORSDOF 0
REMARK  Name = ../refined-set-2016/3qx9/3qx9_pocket.pdb
REMARK  132 active torsions:
REMARK  status: ('A' for Active; 'I' for Inactive)
REMARK    1  A    between atoms: _1  and  _5
REMARK    2  A    between atoms: _5  and  _6
REMARK    3  A    between atoms: _5  and  _8
REMARK    4  A    between atoms: _8  and  _9
REMARK    5  A    between atoms: _9  and  _10
REMARK    6  A    between atoms: _10  and  _11
REMARK    7  A    between atoms: _11  and  _12
REMARK    8  A    between atoms: _16  and  _18
REMARK    9  A    between atoms: _18  and  _19
REMARK   10  A    between atoms: _18  and  _21
REMARK   11  A    between atoms: _21  and  _22
REMARK   12  A    between atoms: _25  and  _27
REMARK   13  A    between atoms: _27  and  _28
REMARK   14  A    between atoms: _27  and  _30
REMARK   15  A    between atoms: _33  and  _35
REMARK   16  A    between atoms: _35  and  _36
REMARK   17  A    between atoms: _35  and  _38
REMARK   18  A    between atoms: _41  and  _43
REMARK   19  A    between atoms: _43  and  _44
REMARK   20  A    between atoms: _43  and  _46
REMARK   21  A    between atoms: _46  and  _47
REMARK   22  A    between atoms: _51  and  _52
REMARK   23  A    between atoms: _57  and  _59
REMARK   24  A    between atoms: _59  and  _60
REMARK   25  A    between atoms: _62  and  _64
REMARK   26  A    between atoms: _64  and  _65
REMARK   27  A    between atoms: _64  and  _67
REMARK   28  A    between atoms: _67  and  _68
REMARK   29  A    between atoms: _68  and  _69
REMARK   30  A    between atoms: _69  and  _70
REMARK   31  A    between atoms: _70  and  _71
REMARK   32  A    between atoms: _75  and  _77
REMARK   33  A    between atoms: _77  and  _78
REMARK   34  A    between atoms: _77  and  _80
REMARK   35  A    between atoms: _80  and  _81
REMARK   36  A    between atoms: _85  and  _86
REMARK   37  A    between atoms: _91  and  _93
REMARK   38  A    between atoms: _93  and  _94
REMARK   39  A    between atoms: _93  and  _96
REMARK   40  A    between atoms: _99  and  _101
REMARK   41  A    between atoms: _101  and  _102
REMARK   42  A    between atoms: _101  and  _104
REMARK   43  A    between atoms: _104  and  _105
REMARK   44  A    between atoms: _110  and  _111
REMARK   45  A    between atoms: _113  and  _115
REMARK   46  A    between atoms: _115  and  _116
REMARK   47  A    between atoms: _119  and  _121
REMARK   48  A    between atoms: _121  and  _122
REMARK   49  A    between atoms: _121  and  _124
REMARK   50  A    between atoms: _124  and  _125
REMARK   51  A    between atoms: _125  and  _126
REMARK   52  A    between atoms: _129  and  _131
REMARK   53  A    between atoms: _131  and  _132
REMARK   54  A    between atoms: _131  and  _134
REMARK   55  A    between atoms: _137  and  _139
REMARK   56  A    between atoms: _139  and  _140
REMARK   57  A    between atoms: _139  and  _142
REMARK   58  A    between atoms: _142  and  _143
REMARK   59  A    between atoms: _143  and  _144
REMARK   60  A    between atoms: _144  and  _145
REMARK   61  A    between atoms: _145  and  _146
REMARK   62  A    between atoms: _150  and  _152
REMARK   63  A    between atoms: _152  and  _153
REMARK   64  A    between atoms: _152  and  _155
REMARK   65  A    between atoms: _155  and  _156
REMARK   66  A    between atoms: _159  and  _161
REMARK   67  A    between atoms: _161  and  _162
REMARK   68  A    between atoms: _165  and  _167
REMARK   69  A    between atoms: _167  and  _168
REMARK   70  A    between atoms: _167  and  _170
REMARK   71  A    between atoms: _170  and  _171
REMARK   72  A    between atoms: _174  and  _176
REMARK   73  A    between atoms: _176  and  _177
REMARK   74  A    between atoms: _176  and  _179
REMARK   75  A    between atoms: _179  and  _180
REMARK   76  A    between atoms: _180  and  _181
REMARK   77  A    between atoms: _186  and  _188
REMARK   78  A    between atoms: _188  and  _189
REMARK   79  A    between atoms: _188  and  _191
REMARK   80  A    between atoms: _193  and  _195
REMARK   81  A    between atoms: _195  and  _196
REMARK   82  A    between atoms: _195  and  _198
REMARK   83  A    between atoms: _201  and  _203
REMARK   84  A    between atoms: _203  and  _204
REMARK   85  A    between atoms: _203  and  _206
REMARK   86  A    between atoms: _206  and  _207
REMARK   87  A    between atoms: _207  and  _208
REMARK   88  A    between atoms: _213  and  _215
REMARK   89  A    between atoms: _215  and  _216
REMARK   90  A    between atoms: _215  and  _218
REMARK   91  A    between atoms: _218  and  _219
REMARK   92  A    between atoms: _219  and  _220
REMARK   93  A    between atoms: _222  and  _224
REMARK   94  A    between atoms: _224  and  _225
REMARK   95  A    between atoms: _224  and  _227
REMARK   96  A    between atoms: _227  and  _228
REMARK   97  A    between atoms: _228  and  _229
REMARK   98  A    between atoms: _229  and  _230
REMARK   99  A    between atoms: _230  and  _231
REMARK  100  A    between atoms: _235  and  _237
REMARK  101  A    between atoms: _237  and  _238
REMARK  102  A    between atoms: _237  and  _240
REMARK  103  A    between atoms: _240  and  _241
REMARK  104  A    between atoms: _246  and  _248
REMARK  105  A    between atoms: _248  and  _249
REMARK  106  A    between atoms: _248  and  _251
REMARK  107  A    between atoms: _251  and  _252
REMARK  108  A    between atoms: _257  and  _259
REMARK  109  A    between atoms: _259  and  _260
REMARK  110  A    between atoms: _259  and  _262
REMARK  111  A    between atoms: _262  and  _263
REMARK  112  A    between atoms: _266  and  _268
REMARK  113  A    between atoms: _268  and  _269
REMARK  114  A    between atoms: _268  and  _271
REMARK  115  A    between atoms: _271  and  _272
REMARK  116  A    between atoms: _272  and  _273
REMARK  117  A    between atoms: _273  and  _274
REMARK  118  A    between atoms: _274  and  _275
REMARK  119  A    between atoms: _279  and  _281
REMARK  120  A    between atoms: _281  and  _282
REMARK  121  A    between atoms: _281  and  _284
REMARK  122  A    between atoms: _284  and  _285
REMARK  123  A    between atoms: _288  and  _290
REMARK  124  A    between atoms: _290  and  _291
REMARK  125  A    between atoms: _290  and  _293
REMARK  126  A    between atoms: _296  and  _298
REMARK  127  A    between atoms: _298  and  _299
REMARK  128  A    between atoms: _298  and  _301
REMARK  129  A    between atoms: _301  and  _302
REMARK  130  A    between atoms: _302  and  _303
REMARK  131  A    between atoms: _303  and  _304
REMARK  132  A    between atoms: _304  and  _305
REMARK                            x       y       z     vdW  Elec       q    Type
REMARK                         _______ _______ _______ _____ _____    ______ ____
ROOT
ATOM      1  O   HOH     1      14.486  10.243 -13.881  0.00  0.00    +0.000 OA
ENDROOT
TORSDOF 0
REMARK  Name = ../refined-set-2016/3qx9/3qx9_pocket.pdb
REMARK  132 active torsions:
REMARK  status: ('A' for Active; 'I' for Inactive)
REMARK    1  A    between atoms: _1  and  _5
REMARK    2  A    between atoms: _5  and  _6
REMARK    3  A    between atoms: _5  and  _8
REMARK    4  A    between atoms: _8  and  _9
REMARK    5  A    between atoms: _9  and  _10
REMARK    6  A    between atoms: _10  and  _11
REMARK    7  A    between atoms: _11  and  _12
REMARK    8  A    between atoms: _16  and  _18
REMARK    9  A    between atoms: _18  and  _19
REMARK   10  A    between atoms: _18  and  _21
REMARK   11  A    between atoms: _21  and  _22
REMARK   12  A    between atoms: _25  and  _27
REMARK   13  A    between atoms: _27  and  _28
REMARK   14  A    between atoms: _27  and  _30
REMARK   15  A    between atoms: _33  and  _35
REMARK   16  A    between atoms: _35  and  _36
REMARK   17  A    between atoms: _35  and  _38
REMARK   18  A    between atoms: _41  and  _43
REMARK   19  A    between atoms: _43  and  _44
REMARK   20  A    between atoms: _43  and  _46
REMARK   21  A    between atoms: _46  and  _47
REMARK   22  A    between atoms: _51  and  _52
REMARK   23  A    between atoms: _57  and  _59
REMARK   24  A    between atoms: _59  and  _60
REMARK   25  A    between atoms: _62  and  _64
REMARK   26  A    between atoms: _64  and  _65
REMARK   27  A    between atoms: _64  and  _67
REMARK   28  A    between atoms: _67  and  _68
REMARK   29  A    between atoms: _68  and  _69
REMARK   30  A    between atoms: _69  and  _70
REMARK   31  A    between atoms: _70  and  _71
REMARK   32  A    between atoms: _75  and  _77
REMARK   33  A    between atoms: _77  and  _78
REMARK   34  A    between atoms: _77  and  _80
REMARK   35  A    between atoms: _80  and  _81
REMARK   36  A    between atoms: _85  and  _86
REMARK   37  A    between atoms: _91  and  _93
REMARK   38  A    between atoms: _93  and  _94
REMARK   39  A    between atoms: _93  and  _96
REMARK   40  A    between atoms: _99  and  _101
REMARK   41  A    between atoms: _101  and  _102
REMARK   42  A    between atoms: _101  and  _104
REMARK   43  A    between atoms: _104  and  _105
REMARK   44  A    between atoms: _110  and  _111
REMARK   45  A    between atoms: _113  and  _115
REMARK   46  A    between atoms: _115  and  _116
REMARK   47  A    between atoms: _119  and  _121
REMARK   48  A    between atoms: _121  and  _122
REMARK   49  A    between atoms: _121  and  _124
REMARK   50  A    between atoms: _124  and  _125
REMARK   51  A    between atoms: _125  and  _126
REMARK   52  A    between atoms: _129  and  _131
REMARK   53  A    between atoms: _131  and  _132
REMARK   54  A    between atoms: _131  and  _134
REMARK   55  A    between atoms: _137  and  _139
REMARK   56  A    between atoms: _139  and  _140
REMARK   57  A    between atoms: _139  and  _142
REMARK   58  A    between atoms: _142  and  _143
REMARK   59  A    between atoms: _143  and  _144
REMARK   60  A    between atoms: _144  and  _145
REMARK   61  A    between atoms: _145  and  _146
REMARK   62  A    between atoms: _150  and  _152
REMARK   63  A    between atoms: _152  and  _153
REMARK   64  A    between atoms: _152  and  _155
REMARK   65  A    between atoms: _155  and  _156
REMARK   66  A    between atoms: _159  and  _161
REMARK   67  A    between atoms: _161  and  _162
REMARK   68  A    between atoms: _165  and  _167
REMARK   69  A    between atoms: _167  and  _168
REMARK   70  A    between atoms: _167  and  _170
REMARK   71  A    between atoms: _170  and  _171
REMARK   72  A    between atoms: _174  and  _176
REMARK   73  A    between atoms: _176  and  _177
REMARK   74  A    between atoms: _176  and  _179
REMARK   75  A    between atoms: _179  and  _180
REMARK   76  A    between atoms: _180  and  _181
REMARK   77  A    between atoms: _186  and  _188
REMARK   78  A    between atoms: _188  and  _189
REMARK   79  A    between atoms: _188  and  _191
REMARK   80  A    between atoms: _193  and  _195
REMARK   81  A    between atoms: _195  and  _196
REMARK   82  A    between atoms: _195  and  _198
REMARK   83  A    between atoms: _201  and  _203
REMARK   84  A    between atoms: _203  and  _204
REMARK   85  A    between atoms: _203  and  _206
REMARK   86  A    between atoms: _206  and  _207
REMARK   87  A    between atoms: _207  and  _208
REMARK   88  A    between atoms: _213  and  _215
REMARK   89  A    between atoms: _215  and  _216
REMARK   90  A    between atoms: _215  and  _218
REMARK   91  A    between atoms: _218  and  _219
REMARK   92  A    between atoms: _219  and  _220
REMARK   93  A    between atoms: _222  and  _224
REMARK   94  A    between atoms: _224  and  _225
REMARK   95  A    between atoms: _224  and  _227
REMARK   96  A    between atoms: _227  and  _228
REMARK   97  A    between atoms: _228  and  _229
REMARK   98  A    between atoms: _229  and  _230
REMARK   99  A    between atoms: _230  and  _231
REMARK  100  A    between atoms: _235  and  _237
REMARK  101  A    between atoms: _237  and  _238
REMARK  102  A    between atoms: _237  and  _240
REMARK  103  A    between atoms: _240  and  _241
REMARK  104  A    between atoms: _246  and  _248
REMARK  105  A    between atoms: _248  and  _249
REMARK  106  A    between atoms: _248  and  _251
REMARK  107  A    between atoms: _251  and  _252
REMARK  108  A    between atoms: _257  and  _259
REMARK  109  A    between atoms: _259  and  _260
REMARK  110  A    between atoms: _259  and  _262
REMARK  111  A    between atoms: _262  and  _263
REMARK  112  A    between atoms: _266  and  _268
REMARK  113  A    between atoms: _268  and  _269
REMARK  114  A    between atoms: _268  and  _271
REMARK  115  A    between atoms: _271  and  _272
REMARK  116  A    between atoms: _272  and  _273
REMARK  117  A    between atoms: _273  and  _274
REMARK  118  A    between atoms: _274  and  _275
REMARK  119  A    between atoms: _279  and  _281
REMARK  120  A    between atoms: _281  and  _282
REMARK  121  A    between atoms: _281  and  _284
REMARK  122  A    between atoms: _284  and  _285
REMARK  123  A    between atoms: _288  and  _290
REMARK  124  A    between atoms: _290  and  _291
REMARK  125  A    between atoms: _290  and  _293
REMARK  126  A    between atoms: _296  and  _298
REMARK  127  A    between atoms: _298  and  _299
REMARK  128  A    between atoms: _298  and  _301
REMARK  129  A    between atoms: _301  and  _302
REMARK  130  A    between atoms: _302  and  _303
REMARK  131  A    between atoms: _303  and  _304
REMARK  132  A    between atoms: _304  and  _305
REMARK                            x       y       z     vdW  Elec       q    Type
REMARK                         _______ _______ _______ _____ _____    ______ ____
ROOT
ATOM      1  O   HOH     1      28.503   9.063 -14.196  0.00  0.00    +0.000 OA
ENDROOT
TORSDOF 0
REMARK  Name = ../refined-set-2016/3qx9/3qx9_pocket.pdb
REMARK  132 active torsions:
REMARK  status: ('A' for Active; 'I' for Inactive)
REMARK    1  A    between atoms: _1  and  _5
REMARK    2  A    between atoms: _5  and  _6
REMARK    3  A    between atoms: _5  and  _8
REMARK    4  A    between atoms: _8  and  _9
REMARK    5  A    between atoms: _9  and  _10
REMARK    6  A    between atoms: _10  and  _11
REMARK    7  A    between atoms: _11  and  _12
REMARK    8  A    between atoms: _16  and  _18
REMARK    9  A    between atoms: _18  and  _19
REMARK   10  A    between atoms: _18  and  _21
REMARK   11  A    between atoms: _21  and  _22
REMARK   12  A    between atoms: _25  and  _27
REMARK   13  A    between atoms: _27  and  _28
REMARK   14  A    between atoms: _27  and  _30
REMARK   15  A    between atoms: _33  and  _35
REMARK   16  A    between atoms: _35  and  _36
REMARK   17  A    between atoms: _35  and  _38
REMARK   18  A    between atoms: _41  and  _43
REMARK   19  A    between atoms: _43  and  _44
REMARK   20  A    between atoms: _43  and  _46
REMARK   21  A    between atoms: _46  and  _47
REMARK   22  A    between atoms: _51  and  _52
REMARK   23  A    between atoms: _57  and  _59
REMARK   24  A    between atoms: _59  and  _60
REMARK   25  A    between atoms: _62  and  _64
REMARK   26  A    between atoms: _64  and  _65
REMARK   27  A    between atoms: _64  and  _67
REMARK   28  A    between atoms: _67  and  _68
REMARK   29  A    between atoms: _68  and  _69
REMARK   30  A    between atoms: _69  and  _70
REMARK   31  A    between atoms: _70  and  _71
REMARK   32  A    between atoms: _75  and  _77
REMARK   33  A    between atoms: _77  and  _78
REMARK   34  A    between atoms: _77  and  _80
REMARK   35  A    between atoms: _80  and  _81
REMARK   36  A    between atoms: _85  and  _86
REMARK   37  A    between atoms: _91  and  _93
REMARK   38  A    between atoms: _93  and  _94
REMARK   39  A    between atoms: _93  and  _96
REMARK   40  A    between atoms: _99  and  _101
REMARK   41  A    between atoms: _101  and  _102
REMARK   42  A    between atoms: _101  and  _104
REMARK   43  A    between atoms: _104  and  _105
REMARK   44  A    between atoms: _110  and  _111
REMARK   45  A    between atoms: _113  and  _115
REMARK   46  A    between atoms: _115  and  _116
REMARK   47  A    between atoms: _119  and  _121
REMARK   48  A    between atoms: _121  and  _122
REMARK   49  A    between atoms: _121  and  _124
REMARK   50  A    between atoms: _124  and  _125
REMARK   51  A    between atoms: _125  and  _126
REMARK   52  A    between atoms: _129  and  _131
REMARK   53  A    between atoms: _131  and  _132
REMARK   54  A    between atoms: _131  and  _134
REMARK   55  A    between atoms: _137  and  _139
REMARK   56  A    between atoms: _139  and  _140
REMARK   57  A    between atoms: _139  and  _142
REMARK   58  A    between atoms: _142  and  _143
REMARK   59  A    between atoms: _143  and  _144
REMARK   60  A    between atoms: _144  and  _145
REMARK   61  A    between atoms: _145  and  _146
REMARK   62  A    between atoms: _150  and  _152
REMARK   63  A    between atoms: _152  and  _153
REMARK   64  A    between atoms: _152  and  _155
REMARK   65  A    between atoms: _155  and  _156
REMARK   66  A    between atoms: _159  and  _161
REMARK   67  A    between atoms: _161  and  _162
REMARK   68  A    between atoms: _165  and  _167
REMARK   69  A    between atoms: _167  and  _168
REMARK   70  A    between atoms: _167  and  _170
REMARK   71  A    between atoms: _170  and  _171
REMARK   72  A    between atoms: _174  and  _176
REMARK   73  A    between atoms: _176  and  _177
REMARK   74  A    between atoms: _176  and  _179
REMARK   75  A    between atoms: _179  and  _180
REMARK   76  A    between atoms: _180  and  _181
REMARK   77  A    between atoms: _186  and  _188
REMARK   78  A    between atoms: _188  and  _189
REMARK   79  A    between atoms: _188  and  _191
REMARK   80  A    between atoms: _193  and  _195
REMARK   81  A    between atoms: _195  and  _196
REMARK   82  A    between atoms: _195  and  _198
REMARK   83  A    between atoms: _201  and  _203
REMARK   84  A    between atoms: _203  and  _204
REMARK   85  A    between atoms: _203  and  _206
REMARK   86  A    between atoms: _206  and  _207
REMARK   87  A    between atoms: _207  and  _208
REMARK   88  A    between atoms: _213  and  _215
REMARK   89  A    between atoms: _215  and  _216
REMARK   90  A    between atoms: _215  and  _218
REMARK   91  A    between atoms: _218  and  _219
REMARK   92  A    between atoms: _219  and  _220
REMARK   93  A    between atoms: _222  and  _224
REMARK   94  A    between atoms: _224  and  _225
REMARK   95  A    between atoms: _224  and  _227
REMARK   96  A    between atoms: _227  and  _228
REMARK   97  A    between atoms: _228  and  _229
REMARK   98  A    between atoms: _229  and  _230
REMARK   99  A    between atoms: _230  and  _231
REMARK  100  A    between atoms: _235  and  _237
REMARK  101  A    between atoms: _237  and  _238
REMARK  102  A    between atoms: _237  and  _240
REMARK  103  A    between atoms: _240  and  _241
REMARK  104  A    between atoms: _246  and  _248
REMARK  105  A    between atoms: _248  and  _249
REMARK  106  A    between atoms: _248  and  _251
REMARK  107  A    between atoms: _251  and  _252
REMARK  108  A    between atoms: _257  and  _259
REMARK  109  A    between atoms: _259  and  _260
REMARK  110  A    between atoms: _259  and  _262
REMARK  111  A    between atoms: _262  and  _263
REMARK  112  A    between atoms: _266  and  _268
REMARK  113  A    between atoms: _268  and  _269
REMARK  114  A    between atoms: _268  and  _271
REMARK  115  A    between atoms: _271  and  _272
REMARK  116  A    between atoms: _272  and  _273
REMARK  117  A    between atoms: _273  and  _274
REMARK  118  A    between atoms: _274  and  _275
REMARK  119  A    between atoms: _279  and  _281
REMARK  120  A    between atoms: _281  and  _282
REMARK  121  A    between atoms: _281  and  _284
REMARK  122  A    between atoms: _284  and  _285
REMARK  123  A    between atoms: _288  and  _290
REMARK  124  A    between atoms: _290  and  _291
REMARK  125  A    between atoms: _290  and  _293
REMARK  126  A    between atoms: _296  and  _298
REMARK  127  A    between atoms: _298  and  _299
REMARK  128  A    between atoms: _298  and  _301
REMARK  129  A    between atoms: _301  and  _302
REMARK  130  A    between atoms: _302  and  _303
REMARK  131  A    between atoms: _303  and  _304
REMARK  132  A    between atoms: _304  and  _305
REMARK                            x       y       z     vdW  Elec       q    Type
REMARK                         _______ _______ _______ _____ _____    ______ ____
ROOT
ATOM      1  O   HOH     1      16.102   6.748 -25.691  0.00  0.00    +0.000 OA
ENDROOT
TORSDOF 0
REMARK  Name = ../refined-set-2016/3qx9/3qx9_pocket.pdb
REMARK  132 active torsions:
REMARK  status: ('A' for Active; 'I' for Inactive)
REMARK    1  A    between atoms: _1  and  _5
REMARK    2  A    between atoms: _5  and  _6
REMARK    3  A    between atoms: _5  and  _8
REMARK    4  A    between atoms: _8  and  _9
REMARK    5  A    between atoms: _9  and  _10
REMARK    6  A    between atoms: _10  and  _11
REMARK    7  A    between atoms: _11  and  _12
REMARK    8  A    between atoms: _16  and  _18
REMARK    9  A    between atoms: _18  and  _19
REMARK   10  A    between atoms: _18  and  _21
REMARK   11  A    between atoms: _21  and  _22
REMARK   12  A    between atoms: _25  and  _27
REMARK   13  A    between atoms: _27  and  _28
REMARK   14  A    between atoms: _27  and  _30
REMARK   15  A    between atoms: _33  and  _35
REMARK   16  A    between atoms: _35  and  _36
REMARK   17  A    between atoms: _35  and  _38
REMARK   18  A    between atoms: _41  and  _43
REMARK   19  A    between atoms: _43  and  _44
REMARK   20  A    between atoms: _43  and  _46
REMARK   21  A    between atoms: _46  and  _47
REMARK   22  A    between atoms: _51  and  _52
REMARK   23  A    between atoms: _57  and  _59
REMARK   24  A    between atoms: _59  and  _60
REMARK   25  A    between atoms: _62  and  _64
REMARK   26  A    between atoms: _64  and  _65
REMARK   27  A    between atoms: _64  and  _67
REMARK   28  A    between atoms: _67  and  _68
REMARK   29  A    between atoms: _68  and  _69
REMARK   30  A    between atoms: _69  and  _70
REMARK   31  A    between atoms: _70  and  _71
REMARK   32  A    between atoms: _75  and  _77
REMARK   33  A    between atoms: _77  and  _78
REMARK   34  A    between atoms: _77  and  _80
REMARK   35  A    between atoms: _80  and  _81
REMARK   36  A    between atoms: _85  and  _86
REMARK   37  A    between atoms: _91  and  _93
REMARK   38  A    between atoms: _93  and  _94
REMARK   39  A    between atoms: _93  and  _96
REMARK   40  A    between atoms: _99  and  _101
REMARK   41  A    between atoms: _101  and  _102
REMARK   42  A    between atoms: _101  and  _104
REMARK   43  A    between atoms: _104  and  _105
REMARK   44  A    between atoms: _110  and  _111
REMARK   45  A    between atoms: _113  and  _115
REMARK   46  A    between atoms: _115  and  _116
REMARK   47  A    between atoms: _119  and  _121
REMARK   48  A    between atoms: _121  and  _122
REMARK   49  A    between atoms: _121  and  _124
REMARK   50  A    between atoms: _124  and  _125
REMARK   51  A    between atoms: _125  and  _126
REMARK   52  A    between atoms: _129  and  _131
REMARK   53  A    between atoms: _131  and  _132
REMARK   54  A    between atoms: _131  and  _134
REMARK   55  A    between atoms: _137  and  _139
REMARK   56  A    between atoms: _139  and  _140
REMARK   57  A    between atoms: _139  and  _142
REMARK   58  A    between atoms: _142  and  _143
REMARK   59  A    between atoms: _143  and  _144
REMARK   60  A    between atoms: _144  and  _145
REMARK   61  A    between atoms: _145  and  _146
REMARK   62  A    between atoms: _150  and  _152
REMARK   63  A    between atoms: _152  and  _153
REMARK   64  A    between atoms: _152  and  _155
REMARK   65  A    between atoms: _155  and  _156
REMARK   66  A    between atoms: _159  and  _161
REMARK   67  A    between atoms: _161  and  _162
REMARK   68  A    between atoms: _165  and  _167
REMARK   69  A    between atoms: _167  and  _168
REMARK   70  A    between atoms: _167  and  _170
REMARK   71  A    between atoms: _170  and  _171
REMARK   72  A    between atoms: _174  and  _176
REMARK   73  A    between atoms: _176  and  _177
REMARK   74  A    between atoms: _176  and  _179
REMARK   75  A    between atoms: _179  and  _180
REMARK   76  A    between atoms: _180  and  _181
REMARK   77  A    between atoms: _186  and  _188
REMARK   78  A    between atoms: _188  and  _189
REMARK   79  A    between atoms: _188  and  _191
REMARK   80  A    between atoms: _193  and  _195
REMARK   81  A    between atoms: _195  and  _196
REMARK   82  A    between atoms: _195  and  _198
REMARK   83  A    between atoms: _201  and  _203
REMARK   84  A    between atoms: _203  and  _204
REMARK   85  A    between atoms: _203  and  _206
REMARK   86  A    between atoms: _206  and  _207
REMARK   87  A    between atoms: _207  and  _208
REMARK   88  A    between atoms: _213  and  _215
REMARK   89  A    between atoms: _215  and  _216
REMARK   90  A    between atoms: _215  and  _218
REMARK   91  A    between atoms: _218  and  _219
REMARK   92  A    between atoms: _219  and  _220
REMARK   93  A    between atoms: _222  and  _224
REMARK   94  A    between atoms: _224  and  _225
REMARK   95  A    between atoms: _224  and  _227
REMARK   96  A    between atoms: _227  and  _228
REMARK   97  A    between atoms: _228  and  _229
REMARK   98  A    between atoms: _229  and  _230
REMARK   99  A    between atoms: _230  and  _231
REMARK  100  A    between atoms: _235  and  _237
REMARK  101  A    between atoms: _237  and  _238
REMARK  102  A    between atoms: _237  and  _240
REMARK  103  A    between atoms: _240  and  _241
REMARK  104  A    between atoms: _246  and  _248
REMARK  105  A    between atoms: _248  and  _249
REMARK  106  A    between atoms: _248  and  _251
REMARK  107  A    between atoms: _251  and  _252
REMARK  108  A    between atoms: _257  and  _259
REMARK  109  A    between atoms: _259  and  _260
REMARK  110  A    between atoms: _259  and  _262
REMARK  111  A    between atoms: _262  and  _263
REMARK  112  A    between atoms: _266  and  _268
REMARK  113  A    between atoms: _268  and  _269
REMARK  114  A    between atoms: _268  and  _271
REMARK  115  A    between atoms: _271  and  _272
REMARK  116  A    between atoms: _272  and  _273
REMARK  117  A    between atoms: _273  and  _274
REMARK  118  A    between atoms: _274  and  _275
REMARK  119  A    between atoms: _279  and  _281
REMARK  120  A    between atoms: _281  and  _282
REMARK  121  A    between atoms: _281  and  _284
REMARK  122  A    between atoms: _284  and  _285
REMARK  123  A    between atoms: _288  and  _290
REMARK  124  A    between atoms: _290  and  _291
REMARK  125  A    between atoms: _290  and  _293
REMARK  126  A    between atoms: _296  and  _298
REMARK  127  A    between atoms: _298  and  _299
REMARK  128  A    between atoms: _298  and  _301
REMARK  129  A    between atoms: _301  and  _302
REMARK  130  A    between atoms: _302  and  _303
REMARK  131  A    between atoms: _303  and  _304
REMARK  132  A    between atoms: _304  and  _305
REMARK                            x       y       z     vdW  Elec       q    Type
REMARK                         _______ _______ _______ _____ _____    ______ ____
ROOT
ATOM      1  O   HOH     1      24.780  10.046  -5.170  0.00  0.00    +0.000 OA
ENDROOT
TORSDOF 0
REMARK  Name = ../refined-set-2016/3qx9/3qx9_pocket.pdb
REMARK  132 active torsions:
REMARK  status: ('A' for Active; 'I' for Inactive)
REMARK    1  A    between atoms: _1  and  _5
REMARK    2  A    between atoms: _5  and  _6
REMARK    3  A    between atoms: _5  and  _8
REMARK    4  A    between atoms: _8  and  _9
REMARK    5  A    between atoms: _9  and  _10
REMARK    6  A    between atoms: _10  and  _11
REMARK    7  A    between atoms: _11  and  _12
REMARK    8  A    between atoms: _16  and  _18
REMARK    9  A    between atoms: _18  and  _19
REMARK   10  A    between atoms: _18  and  _21
REMARK   11  A    between atoms: _21  and  _22
REMARK   12  A    between atoms: _25  and  _27
REMARK   13  A    between atoms: _27  and  _28
REMARK   14  A    between atoms: _27  and  _30
REMARK   15  A    between atoms: _33  and  _35
REMARK   16  A    between atoms: _35  and  _36
REMARK   17  A    between atoms: _35  and  _38
REMARK   18  A    between atoms: _41  and  _43
REMARK   19  A    between atoms: _43  and  _44
REMARK   20  A    between atoms: _43  and  _46
REMARK   21  A    between atoms: _46  and  _47
REMARK   22  A    between atoms: _51  and  _52
REMARK   23  A    between atoms: _57  and  _59
REMARK   24  A    between atoms: _59  and  _60
REMARK   25  A    between atoms: _62  and  _64
REMARK   26  A    between atoms: _64  and  _65
REMARK   27  A    between atoms: _64  and  _67
REMARK   28  A    between atoms: _67  and  _68
REMARK   29  A    between atoms: _68  and  _69
REMARK   30  A    between atoms: _69  and  _70
REMARK   31  A    between atoms: _70  and  _71
REMARK   32  A    between atoms: _75  and  _77
REMARK   33  A    between atoms: _77  and  _78
REMARK   34  A    between atoms: _77  and  _80
REMARK   35  A    between atoms: _80  and  _81
REMARK   36  A    between atoms: _85  and  _86
REMARK   37  A    between atoms: _91  and  _93
REMARK   38  A    between atoms: _93  and  _94
REMARK   39  A    between atoms: _93  and  _96
REMARK   40  A    between atoms: _99  and  _101
REMARK   41  A    between atoms: _101  and  _102
REMARK   42  A    between atoms: _101  and  _104
REMARK   43  A    between atoms: _104  and  _105
REMARK   44  A    between atoms: _110  and  _111
REMARK   45  A    between atoms: _113  and  _115
REMARK   46  A    between atoms: _115  and  _116
REMARK   47  A    between atoms: _119  and  _121
REMARK   48  A    between atoms: _121  and  _122
REMARK   49  A    between atoms: _121  and  _124
REMARK   50  A    between atoms: _124  and  _125
REMARK   51  A    between atoms: _125  and  _126
REMARK   52  A    between atoms: _129  and  _131
REMARK   53  A    between atoms: _131  and  _132
REMARK   54  A    between atoms: _131  and  _134
REMARK   55  A    between atoms: _137  and  _139
REMARK   56  A    between atoms: _139  and  _140
REMARK   57  A    between atoms: _139  and  _142
REMARK   58  A    between atoms: _142  and  _143
REMARK   59  A    between atoms: _143  and  _144
REMARK   60  A    between atoms: _144  and  _145
REMARK   61  A    between atoms: _145  and  _146
REMARK   62  A    between atoms: _150  and  _152
REMARK   63  A    between atoms: _152  and  _153
REMARK   64  A    between atoms: _152  and  _155
REMARK   65  A    between atoms: _155  and  _156
REMARK   66  A    between atoms: _159  and  _161
REMARK   67  A    between atoms: _161  and  _162
REMARK   68  A    between atoms: _165  and  _167
REMARK   69  A    between atoms: _167  and  _168
REMARK   70  A    between atoms: _167  and  _170
REMARK   71  A    between atoms: _170  and  _171
REMARK   72  A    between atoms: _174  and  _176
REMARK   73  A    between atoms: _176  and  _177
REMARK   74  A    between atoms: _176  and  _179
REMARK   75  A    between atoms: _179  and  _180
REMARK   76  A    between atoms: _180  and  _181
REMARK   77  A    between atoms: _186  and  _188
REMARK   78  A    between atoms: _188  and  _189
REMARK   79  A    between atoms: _188  and  _191
REMARK   80  A    between atoms: _193  and  _195
REMARK   81  A    between atoms: _195  and  _196
REMARK   82  A    between atoms: _195  and  _198
REMARK   83  A    between atoms: _201  and  _203
REMARK   84  A    between atoms: _203  and  _204
REMARK   85  A    between atoms: _203  and  _206
REMARK   86  A    between atoms: _206  and  _207
REMARK   87  A    between atoms: _207  and  _208
REMARK   88  A    between atoms: _213  and  _215
REMARK   89  A    between atoms: _215  and  _216
REMARK   90  A    between atoms: _215  and  _218
REMARK   91  A    between atoms: _218  and  _219
REMARK   92  A    between atoms: _219  and  _220
REMARK   93  A    between atoms: _222  and  _224
REMARK   94  A    between atoms: _224  and  _225
REMARK   95  A    between atoms: _224  and  _227
REMARK   96  A    between atoms: _227  and  _228
REMARK   97  A    between atoms: _228  and  _229
REMARK   98  A    between atoms: _229  and  _230
REMARK   99  A    between atoms: _230  and  _231
REMARK  100  A    between atoms: _235  and  _237
REMARK  101  A    between atoms: _237  and  _238
REMARK  102  A    between atoms: _237  and  _240
REMARK  103  A    between atoms: _240  and  _241
REMARK  104  A    between atoms: _246  and  _248
REMARK  105  A    between atoms: _248  and  _249
REMARK  106  A    between atoms: _248  and  _251
REMARK  107  A    between atoms: _251  and  _252
REMARK  108  A    between atoms: _257  and  _259
REMARK  109  A    between atoms: _259  and  _260
REMARK  110  A    between atoms: _259  and  _262
REMARK  111  A    between atoms: _262  and  _263
REMARK  112  A    between atoms: _266  and  _268
REMARK  113  A    between atoms: _268  and  _269
REMARK  114  A    between atoms: _268  and  _271
REMARK  115  A    between atoms: _271  and  _272
REMARK  116  A    between atoms: _272  and  _273
REMARK  117  A    between atoms: _273  and  _274
REMARK  118  A    between atoms: _274  and  _275
REMARK  119  A    between atoms: _279  and  _281
REMARK  120  A    between atoms: _281  and  _282
REMARK  121  A    between atoms: _281  and  _284
REMARK  122  A    between atoms: _284  and  _285
REMARK  123  A    between atoms: _288  and  _290
REMARK  124  A    between atoms: _290  and  _291
REMARK  125  A    between atoms: _290  and  _293
REMARK  126  A    between atoms: _296  and  _298
REMARK  127  A    between atoms: _298  and  _299
REMARK  128  A    between atoms: _298  and  _301
REMARK  129  A    between atoms: _301  and  _302
REMARK  130  A    between atoms: _302  and  _303
REMARK  131  A    between atoms: _303  and  _304
REMARK  132  A    between atoms: _304  and  _305
REMARK                            x       y       z     vdW  Elec       q    Type
REMARK                         _______ _______ _______ _____ _____    ______ ____
ROOT
ATOM      1  O   HOH     1      33.002   7.971 -14.053  0.00  0.00    +0.000 OA
ENDROOT
TORSDOF 0
REMARK  Name = ../refined-set-2016/3qx9/3qx9_pocket.pdb
REMARK  132 active torsions:
REMARK  status: ('A' for Active; 'I' for Inactive)
REMARK    1  A    between atoms: _1  and  _5
REMARK    2  A    between atoms: _5  and  _6
REMARK    3  A    between atoms: _5  and  _8
REMARK    4  A    between atoms: _8  and  _9
REMARK    5  A    between atoms: _9  and  _10
REMARK    6  A    between atoms: _10  and  _11
REMARK    7  A    between atoms: _11  and  _12
REMARK    8  A    between atoms: _16  and  _18
REMARK    9  A    between atoms: _18  and  _19
REMARK   10  A    between atoms: _18  and  _21
REMARK   11  A    between atoms: _21  and  _22
REMARK   12  A    between atoms: _25  and  _27
REMARK   13  A    between atoms: _27  and  _28
REMARK   14  A    between atoms: _27  and  _30
REMARK   15  A    between atoms: _33  and  _35
REMARK   16  A    between atoms: _35  and  _36
REMARK   17  A    between atoms: _35  and  _38
REMARK   18  A    between atoms: _41  and  _43
REMARK   19  A    between atoms: _43  and  _44
REMARK   20  A    between atoms: _43  and  _46
REMARK   21  A    between atoms: _46  and  _47
REMARK   22  A    between atoms: _51  and  _52
REMARK   23  A    between atoms: _57  and  _59
REMARK   24  A    between atoms: _59  and  _60
REMARK   25  A    between atoms: _62  and  _64
REMARK   26  A    between atoms: _64  and  _65
REMARK   27  A    between atoms: _64  and  _67
REMARK   28  A    between atoms: _67  and  _68
REMARK   29  A    between atoms: _68  and  _69
REMARK   30  A    between atoms: _69  and  _70
REMARK   31  A    between atoms: _70  and  _71
REMARK   32  A    between atoms: _75  and  _77
REMARK   33  A    between atoms: _77  and  _78
REMARK   34  A    between atoms: _77  and  _80
REMARK   35  A    between atoms: _80  and  _81
REMARK   36  A    between atoms: _85  and  _86
REMARK   37  A    between atoms: _91  and  _93
REMARK   38  A    between atoms: _93  and  _94
REMARK   39  A    between atoms: _93  and  _96
REMARK   40  A    between atoms: _99  and  _101
REMARK   41  A    between atoms: _101  and  _102
REMARK   42  A    between atoms: _101  and  _104
REMARK   43  A    between atoms: _104  and  _105
REMARK   44  A    between atoms: _110  and  _111
REMARK   45  A    between atoms: _113  and  _115
REMARK   46  A    between atoms: _115  and  _116
REMARK   47  A    between atoms: _119  and  _121
REMARK   48  A    between atoms: _121  and  _122
REMARK   49  A    between atoms: _121  and  _124
REMARK   50  A    between atoms: _124  and  _125
REMARK   51  A    between atoms: _125  and  _126
REMARK   52  A    between atoms: _129  and  _131
REMARK   53  A    between atoms: _131  and  _132
REMARK   54  A    between atoms: _131  and  _134
REMARK   55  A    between atoms: _137  and  _139
REMARK   56  A    between atoms: _139  and  _140
REMARK   57  A    between atoms: _139  and  _142
REMARK   58  A    between atoms: _142  and  _143
REMARK   59  A    between atoms: _143  and  _144
REMARK   60  A    between atoms: _144  and  _145
REMARK   61  A    between atoms: _145  and  _146
REMARK   62  A    between atoms: _150  and  _152
REMARK   63  A    between atoms: _152  and  _153
REMARK   64  A    between atoms: _152  and  _155
REMARK   65  A    between atoms: _155  and  _156
REMARK   66  A    between atoms: _159  and  _161
REMARK   67  A    between atoms: _161  and  _162
REMARK   68  A    between atoms: _165  and  _167
REMARK   69  A    between atoms: _167  and  _168
REMARK   70  A    between atoms: _167  and  _170
REMARK   71  A    between atoms: _170  and  _171
REMARK   72  A    between atoms: _174  and  _176
REMARK   73  A    between atoms: _176  and  _177
REMARK   74  A    between atoms: _176  and  _179
REMARK   75  A    between atoms: _179  and  _180
REMARK   76  A    between atoms: _180  and  _181
REMARK   77  A    between atoms: _186  and  _188
REMARK   78  A    between atoms: _188  and  _189
REMARK   79  A    between atoms: _188  and  _191
REMARK   80  A    between atoms: _193  and  _195
REMARK   81  A    between atoms: _195  and  _196
REMARK   82  A    between atoms: _195  and  _198
REMARK   83  A    between atoms: _201  and  _203
REMARK   84  A    between atoms: _203  and  _204
REMARK   85  A    between atoms: _203  and  _206
REMARK   86  A    between atoms: _206  and  _207
REMARK   87  A    between atoms: _207  and  _208
REMARK   88  A    between atoms: _213  and  _215
REMARK   89  A    between atoms: _215  and  _216
REMARK   90  A    between atoms: _215  and  _218
REMARK   91  A    between atoms: _218  and  _219
REMARK   92  A    between atoms: _219  and  _220
REMARK   93  A    between atoms: _222  and  _224
REMARK   94  A    between atoms: _224  and  _225
REMARK   95  A    between atoms: _224  and  _227
REMARK   96  A    between atoms: _227  and  _228
REMARK   97  A    between atoms: _228  and  _229
REMARK   98  A    between atoms: _229  and  _230
REMARK   99  A    between atoms: _230  and  _231
REMARK  100  A    between atoms: _235  and  _237
REMARK  101  A    between atoms: _237  and  _238
REMARK  102  A    between atoms: _237  and  _240
REMARK  103  A    between atoms: _240  and  _241
REMARK  104  A    between atoms: _246  and  _248
REMARK  105  A    between atoms: _248  and  _249
REMARK  106  A    between atoms: _248  and  _251
REMARK  107  A    between atoms: _251  and  _252
REMARK  108  A    between atoms: _257  and  _259
REMARK  109  A    between atoms: _259  and  _260
REMARK  110  A    between atoms: _259  and  _262
REMARK  111  A    between atoms: _262  and  _263
REMARK  112  A    between atoms: _266  and  _268
REMARK  113  A    between atoms: _268  and  _269
REMARK  114  A    between atoms: _268  and  _271
REMARK  115  A    between atoms: _271  and  _272
REMARK  116  A    between atoms: _272  and  _273
REMARK  117  A    between atoms: _273  and  _274
REMARK  118  A    between atoms: _274  and  _275
REMARK  119  A    between atoms: _279  and  _281
REMARK  120  A    between atoms: _281  and  _282
REMARK  121  A    between atoms: _281  and  _284
REMARK  122  A    between atoms: _284  and  _285
REMARK  123  A    between atoms: _288  and  _290
REMARK  124  A    between atoms: _290  and  _291
REMARK  125  A    between atoms: _290  and  _293
REMARK  126  A    between atoms: _296  and  _298
REMARK  127  A    between atoms: _298  and  _299
REMARK  128  A    between atoms: _298  and  _301
REMARK  129  A    between atoms: _301  and  _302
REMARK  130  A    between atoms: _302  and  _303
REMARK  131  A    between atoms: _303  and  _304
REMARK  132  A    between atoms: _304  and  _305
REMARK                            x       y       z     vdW  Elec       q    Type
REMARK                         _______ _______ _______ _____ _____    ______ ____
ROOT
ATOM      1  O   HOH     1      10.244   7.740 -14.699  0.00  0.00    +0.000 OA
ENDROOT
TORSDOF 0
REMARK  Name = ../refined-set-2016/3qx9/3qx9_pocket.pdb
REMARK  132 active torsions:
REMARK  status: ('A' for Active; 'I' for Inactive)
REMARK    1  A    between atoms: _1  and  _5
REMARK    2  A    between atoms: _5  and  _6
REMARK    3  A    between atoms: _5  and  _8
REMARK    4  A    between atoms: _8  and  _9
REMARK    5  A    between atoms: _9  and  _10
REMARK    6  A    between atoms: _10  and  _11
REMARK    7  A    between atoms: _11  and  _12
REMARK    8  A    between atoms: _16  and  _18
REMARK    9  A    between atoms: _18  and  _19
REMARK   10  A    between atoms: _18  and  _21
REMARK   11  A    between atoms: _21  and  _22
REMARK   12  A    between atoms: _25  and  _27
REMARK   13  A    between atoms: _27  and  _28
REMARK   14  A    between atoms: _27  and  _30
REMARK   15  A    between atoms: _33  and  _35
REMARK   16  A    between atoms: _35  and  _36
REMARK   17  A    between atoms: _35  and  _38
REMARK   18  A    between atoms: _41  and  _43
REMARK   19  A    between atoms: _43  and  _44
REMARK   20  A    between atoms: _43  and  _46
REMARK   21  A    between atoms: _46  and  _47
REMARK   22  A    between atoms: _51  and  _52
REMARK   23  A    between atoms: _57  and  _59
REMARK   24  A    between atoms: _59  and  _60
REMARK   25  A    between atoms: _62  and  _64
REMARK   26  A    between atoms: _64  and  _65
REMARK   27  A    between atoms: _64  and  _67
REMARK   28  A    between atoms: _67  and  _68
REMARK   29  A    between atoms: _68  and  _69
REMARK   30  A    between atoms: _69  and  _70
REMARK   31  A    between atoms: _70  and  _71
REMARK   32  A    between atoms: _75  and  _77
REMARK   33  A    between atoms: _77  and  _78
REMARK   34  A    between atoms: _77  and  _80
REMARK   35  A    between atoms: _80  and  _81
REMARK   36  A    between atoms: _85  and  _86
REMARK   37  A    between atoms: _91  and  _93
REMARK   38  A    between atoms: _93  and  _94
REMARK   39  A    between atoms: _93  and  _96
REMARK   40  A    between atoms: _99  and  _101
REMARK   41  A    between atoms: _101  and  _102
REMARK   42  A    between atoms: _101  and  _104
REMARK   43  A    between atoms: _104  and  _105
REMARK   44  A    between atoms: _110  and  _111
REMARK   45  A    between atoms: _113  and  _115
REMARK   46  A    between atoms: _115  and  _116
REMARK   47  A    between atoms: _119  and  _121
REMARK   48  A    between atoms: _121  and  _122
REMARK   49  A    between atoms: _121  and  _124
REMARK   50  A    between atoms: _124  and  _125
REMARK   51  A    between atoms: _125  and  _126
REMARK   52  A    between atoms: _129  and  _131
REMARK   53  A    between atoms: _131  and  _132
REMARK   54  A    between atoms: _131  and  _134
REMARK   55  A    between atoms: _137  and  _139
REMARK   56  A    between atoms: _139  and  _140
REMARK   57  A    between atoms: _139  and  _142
REMARK   58  A    between atoms: _142  and  _143
REMARK   59  A    between atoms: _143  and  _144
REMARK   60  A    between atoms: _144  and  _145
REMARK   61  A    between atoms: _145  and  _146
REMARK   62  A    between atoms: _150  and  _152
REMARK   63  A    between atoms: _152  and  _153
REMARK   64  A    between atoms: _152  and  _155
REMARK   65  A    between atoms: _155  and  _156
REMARK   66  A    between atoms: _159  and  _161
REMARK   67  A    between atoms: _161  and  _162
REMARK   68  A    between atoms: _165  and  _167
REMARK   69  A    between atoms: _167  and  _168
REMARK   70  A    between atoms: _167  and  _170
REMARK   71  A    between atoms: _170  and  _171
REMARK   72  A    between atoms: _174  and  _176
REMARK   73  A    between atoms: _176  and  _177
REMARK   74  A    between atoms: _176  and  _179
REMARK   75  A    between atoms: _179  and  _180
REMARK   76  A    between atoms: _180  and  _181
REMARK   77  A    between atoms: _186  and  _188
REMARK   78  A    between atoms: _188  and  _189
REMARK   79  A    between atoms: _188  and  _191
REMARK   80  A    between atoms: _193  and  _195
REMARK   81  A    between atoms: _195  and  _196
REMARK   82  A    between atoms: _195  and  _198
REMARK   83  A    between atoms: _201  and  _203
REMARK   84  A    between atoms: _203  and  _204
REMARK   85  A    between atoms: _203  and  _206
REMARK   86  A    between atoms: _206  and  _207
REMARK   87  A    between atoms: _207  and  _208
REMARK   88  A    between atoms: _213  and  _215
REMARK   89  A    between atoms: _215  and  _216
REMARK   90  A    between atoms: _215  and  _218
REMARK   91  A    between atoms: _218  and  _219
REMARK   92  A    between atoms: _219  and  _220
REMARK   93  A    between atoms: _222  and  _224
REMARK   94  A    between atoms: _224  and  _225
REMARK   95  A    between atoms: _224  and  _227
REMARK   96  A    between atoms: _227  and  _228
REMARK   97  A    between atoms: _228  and  _229
REMARK   98  A    between atoms: _229  and  _230
REMARK   99  A    between atoms: _230  and  _231
REMARK  100  A    between atoms: _235  and  _237
REMARK  101  A    between atoms: _237  and  _238
REMARK  102  A    between atoms: _237  and  _240
REMARK  103  A    between atoms: _240  and  _241
REMARK  104  A    between atoms: _246  and  _248
REMARK  105  A    between atoms: _248  and  _249
REMARK  106  A    between atoms: _248  and  _251
REMARK  107  A    between atoms: _251  and  _252
REMARK  108  A    between atoms: _257  and  _259
REMARK  109  A    between atoms: _259  and  _260
REMARK  110  A    between atoms: _259  and  _262
REMARK  111  A    between atoms: _262  and  _263
REMARK  112  A    between atoms: _266  and  _268
REMARK  113  A    between atoms: _268  and  _269
REMARK  114  A    between atoms: _268  and  _271
REMARK  115  A    between atoms: _271  and  _272
REMARK  116  A    between atoms: _272  and  _273
REMARK  117  A    between atoms: _273  and  _274
REMARK  118  A    between atoms: _274  and  _275
REMARK  119  A    between atoms: _279  and  _281
REMARK  120  A    between atoms: _281  and  _282
REMARK  121  A    between atoms: _281  and  _284
REMARK  122  A    between atoms: _284  and  _285
REMARK  123  A    between atoms: _288  and  _290
REMARK  124  A    between atoms: _290  and  _291
REMARK  125  A    between atoms: _290  and  _293
REMARK  126  A    between atoms: _296  and  _298
REMARK  127  A    between atoms: _298  and  _299
REMARK  128  A    between atoms: _298  and  _301
REMARK  129  A    between atoms: _301  and  _302
REMARK  130  A    between atoms: _302  and  _303
REMARK  131  A    between atoms: _303  and  _304
REMARK  132  A    between atoms: _304  and  _305
REMARK                            x       y       z     vdW  Elec       q    Type
REMARK                         _______ _______ _______ _____ _____    ______ ____
ROOT
ATOM      1  O   HOH     1      20.388   1.704 -23.936  0.00  0.00    +0.000 OA
ENDROOT
TORSDOF 0
REMARK  Name = ../refined-set-2016/3qx9/3qx9_pocket.pdb
REMARK  132 active torsions:
REMARK  status: ('A' for Active; 'I' for Inactive)
REMARK    1  A    between atoms: _1  and  _5
REMARK    2  A    between atoms: _5  and  _6
REMARK    3  A    between atoms: _5  and  _8
REMARK    4  A    between atoms: _8  and  _9
REMARK    5  A    between atoms: _9  and  _10
REMARK    6  A    between atoms: _10  and  _11
REMARK    7  A    between atoms: _11  and  _12
REMARK    8  A    between atoms: _16  and  _18
REMARK    9  A    between atoms: _18  and  _19
REMARK   10  A    between atoms: _18  and  _21
REMARK   11  A    between atoms: _21  and  _22
REMARK   12  A    between atoms: _25  and  _27
REMARK   13  A    between atoms: _27  and  _28
REMARK   14  A    between atoms: _27  and  _30
REMARK   15  A    between atoms: _33  and  _35
REMARK   16  A    between atoms: _35  and  _36
REMARK   17  A    between atoms: _35  and  _38
REMARK   18  A    between atoms: _41  and  _43
REMARK   19  A    between atoms: _43  and  _44
REMARK   20  A    between atoms: _43  and  _46
REMARK   21  A    between atoms: _46  and  _47
REMARK   22  A    between atoms: _51  and  _52
REMARK   23  A    between atoms: _57  and  _59
REMARK   24  A    between atoms: _59  and  _60
REMARK   25  A    between atoms: _62  and  _64
REMARK   26  A    between atoms: _64  and  _65
REMARK   27  A    between atoms: _64  and  _67
REMARK   28  A    between atoms: _67  and  _68
REMARK   29  A    between atoms: _68  and  _69
REMARK   30  A    between atoms: _69  and  _70
REMARK   31  A    between atoms: _70  and  _71
REMARK   32  A    between atoms: _75  and  _77
REMARK   33  A    between atoms: _77  and  _78
REMARK   34  A    between atoms: _77  and  _80
REMARK   35  A    between atoms: _80  and  _81
REMARK   36  A    between atoms: _85  and  _86
REMARK   37  A    between atoms: _91  and  _93
REMARK   38  A    between atoms: _93  and  _94
REMARK   39  A    between atoms: _93  and  _96
REMARK   40  A    between atoms: _99  and  _101
REMARK   41  A    between atoms: _101  and  _102
REMARK   42  A    between atoms: _101  and  _104
REMARK   43  A    between atoms: _104  and  _105
REMARK   44  A    between atoms: _110  and  _111
REMARK   45  A    between atoms: _113  and  _115
REMARK   46  A    between atoms: _115  and  _116
REMARK   47  A    between atoms: _119  and  _121
REMARK   48  A    between atoms: _121  and  _122
REMARK   49  A    between atoms: _121  and  _124
REMARK   50  A    between atoms: _124  and  _125
REMARK   51  A    between atoms: _125  and  _126
REMARK   52  A    between atoms: _129  and  _131
REMARK   53  A    between atoms: _131  and  _132
REMARK   54  A    between atoms: _131  and  _134
REMARK   55  A    between atoms: _137  and  _139
REMARK   56  A    between atoms: _139  and  _140
REMARK   57  A    between atoms: _139  and  _142
REMARK   58  A    between atoms: _142  and  _143
REMARK   59  A    between atoms: _143  and  _144
REMARK   60  A    between atoms: _144  and  _145
REMARK   61  A    between atoms: _145  and  _146
REMARK   62  A    between atoms: _150  and  _152
REMARK   63  A    between atoms: _152  and  _153
REMARK   64  A    between atoms: _152  and  _155
REMARK   65  A    between atoms: _155  and  _156
REMARK   66  A    between atoms: _159  and  _161
REMARK   67  A    between atoms: _161  and  _162
REMARK   68  A    between atoms: _165  and  _167
REMARK   69  A    between atoms: _167  and  _168
REMARK   70  A    between atoms: _167  and  _170
REMARK   71  A    between atoms: _170  and  _171
REMARK   72  A    between atoms: _174  and  _176
REMARK   73  A    between atoms: _176  and  _177
REMARK   74  A    between atoms: _176  and  _179
REMARK   75  A    between atoms: _179  and  _180
REMARK   76  A    between atoms: _180  and  _181
REMARK   77  A    between atoms: _186  and  _188
REMARK   78  A    between atoms: _188  and  _189
REMARK   79  A    between atoms: _188  and  _191
REMARK   80  A    between atoms: _193  and  _195
REMARK   81  A    between atoms: _195  and  _196
REMARK   82  A    between atoms: _195  and  _198
REMARK   83  A    between atoms: _201  and  _203
REMARK   84  A    between atoms: _203  and  _204
REMARK   85  A    between atoms: _203  and  _206
REMARK   86  A    between atoms: _206  and  _207
REMARK   87  A    between atoms: _207  and  _208
REMARK   88  A    between atoms: _213  and  _215
REMARK   89  A    between atoms: _215  and  _216
REMARK   90  A    between atoms: _215  and  _218
REMARK   91  A    between atoms: _218  and  _219
REMARK   92  A    between atoms: _219  and  _220
REMARK   93  A    between atoms: _222  and  _224
REMARK   94  A    between atoms: _224  and  _225
REMARK   95  A    between atoms: _224  and  _227
REMARK   96  A    between atoms: _227  and  _228
REMARK   97  A    between atoms: _228  and  _229
REMARK   98  A    between atoms: _229  and  _230
REMARK   99  A    between atoms: _230  and  _231
REMARK  100  A    between atoms: _235  and  _237
REMARK  101  A    between atoms: _237  and  _238
REMARK  102  A    between atoms: _237  and  _240
REMARK  103  A    between atoms: _240  and  _241
REMARK  104  A    between atoms: _246  and  _248
REMARK  105  A    between atoms: _248  and  _249
REMARK  106  A    between atoms: _248  and  _251
REMARK  107  A    between atoms: _251  and  _252
REMARK  108  A    between atoms: _257  and  _259
REMARK  109  A    between atoms: _259  and  _260
REMARK  110  A    between atoms: _259  and  _262
REMARK  111  A    between atoms: _262  and  _263
REMARK  112  A    between atoms: _266  and  _268
REMARK  113  A    between atoms: _268  and  _269
REMARK  114  A    between atoms: _268  and  _271
REMARK  115  A    between atoms: _271  and  _272
REMARK  116  A    between atoms: _272  and  _273
REMARK  117  A    between atoms: _273  and  _274
REMARK  118  A    between atoms: _274  and  _275
REMARK  119  A    between atoms: _279  and  _281
REMARK  120  A    between atoms: _281  and  _282
REMARK  121  A    between atoms: _281  and  _284
REMARK  122  A    between atoms: _284  and  _285
REMARK  123  A    between atoms: _288  and  _290
REMARK  124  A    between atoms: _290  and  _291
REMARK  125  A    between atoms: _290  and  _293
REMARK  126  A    between atoms: _296  and  _298
REMARK  127  A    between atoms: _298  and  _299
REMARK  128  A    between atoms: _298  and  _301
REMARK  129  A    between atoms: _301  and  _302
REMARK  130  A    between atoms: _302  and  _303
REMARK  131  A    between atoms: _303  and  _304
REMARK  132  A    between atoms: _304  and  _305
REMARK                            x       y       z     vdW  Elec       q    Type
REMARK                         _______ _______ _______ _____ _____    ______ ____
ROOT
ATOM      1  O   HOH     1      18.383   7.063 -27.076  0.00  0.00    +0.000 OA
ENDROOT
TORSDOF 0
REMARK  Name = ../refined-set-2016/3qx9/3qx9_pocket.pdb
REMARK  132 active torsions:
REMARK  status: ('A' for Active; 'I' for Inactive)
REMARK    1  A    between atoms: _1  and  _5
REMARK    2  A    between atoms: _5  and  _6
REMARK    3  A    between atoms: _5  and  _8
REMARK    4  A    between atoms: _8  and  _9
REMARK    5  A    between atoms: _9  and  _10
REMARK    6  A    between atoms: _10  and  _11
REMARK    7  A    between atoms: _11  and  _12
REMARK    8  A    between atoms: _16  and  _18
REMARK    9  A    between atoms: _18  and  _19
REMARK   10  A    between atoms: _18  and  _21
REMARK   11  A    between atoms: _21  and  _22
REMARK   12  A    between atoms: _25  and  _27
REMARK   13  A    between atoms: _27  and  _28
REMARK   14  A    between atoms: _27  and  _30
REMARK   15  A    between atoms: _33  and  _35
REMARK   16  A    between atoms: _35  and  _36
REMARK   17  A    between atoms: _35  and  _38
REMARK   18  A    between atoms: _41  and  _43
REMARK   19  A    between atoms: _43  and  _44
REMARK   20  A    between atoms: _43  and  _46
REMARK   21  A    between atoms: _46  and  _47
REMARK   22  A    between atoms: _51  and  _52
REMARK   23  A    between atoms: _57  and  _59
REMARK   24  A    between atoms: _59  and  _60
REMARK   25  A    between atoms: _62  and  _64
REMARK   26  A    between atoms: _64  and  _65
REMARK   27  A    between atoms: _64  and  _67
REMARK   28  A    between atoms: _67  and  _68
REMARK   29  A    between atoms: _68  and  _69
REMARK   30  A    between atoms: _69  and  _70
REMARK   31  A    between atoms: _70  and  _71
REMARK   32  A    between atoms: _75  and  _77
REMARK   33  A    between atoms: _77  and  _78
REMARK   34  A    between atoms: _77  and  _80
REMARK   35  A    between atoms: _80  and  _81
REMARK   36  A    between atoms: _85  and  _86
REMARK   37  A    between atoms: _91  and  _93
REMARK   38  A    between atoms: _93  and  _94
REMARK   39  A    between atoms: _93  and  _96
REMARK   40  A    between atoms: _99  and  _101
REMARK   41  A    between atoms: _101  and  _102
REMARK   42  A    between atoms: _101  and  _104
REMARK   43  A    between atoms: _104  and  _105
REMARK   44  A    between atoms: _110  and  _111
REMARK   45  A    between atoms: _113  and  _115
REMARK   46  A    between atoms: _115  and  _116
REMARK   47  A    between atoms: _119  and  _121
REMARK   48  A    between atoms: _121  and  _122
REMARK   49  A    between atoms: _121  and  _124
REMARK   50  A    between atoms: _124  and  _125
REMARK   51  A    between atoms: _125  and  _126
REMARK   52  A    between atoms: _129  and  _131
REMARK   53  A    between atoms: _131  and  _132
REMARK   54  A    between atoms: _131  and  _134
REMARK   55  A    between atoms: _137  and  _139
REMARK   56  A    between atoms: _139  and  _140
REMARK   57  A    between atoms: _139  and  _142
REMARK   58  A    between atoms: _142  and  _143
REMARK   59  A    between atoms: _143  and  _144
REMARK   60  A    between atoms: _144  and  _145
REMARK   61  A    between atoms: _145  and  _146
REMARK   62  A    between atoms: _150  and  _152
REMARK   63  A    between atoms: _152  and  _153
REMARK   64  A    between atoms: _152  and  _155
REMARK   65  A    between atoms: _155  and  _156
REMARK   66  A    between atoms: _159  and  _161
REMARK   67  A    between atoms: _161  and  _162
REMARK   68  A    between atoms: _165  and  _167
REMARK   69  A    between atoms: _167  and  _168
REMARK   70  A    between atoms: _167  and  _170
REMARK   71  A    between atoms: _170  and  _171
REMARK   72  A    between atoms: _174  and  _176
REMARK   73  A    between atoms: _176  and  _177
REMARK   74  A    between atoms: _176  and  _179
REMARK   75  A    between atoms: _179  and  _180
REMARK   76  A    between atoms: _180  and  _181
REMARK   77  A    between atoms: _186  and  _188
REMARK   78  A    between atoms: _188  and  _189
REMARK   79  A    between atoms: _188  and  _191
REMARK   80  A    between atoms: _193  and  _195
REMARK   81  A    between atoms: _195  and  _196
REMARK   82  A    between atoms: _195  and  _198
REMARK   83  A    between atoms: _201  and  _203
REMARK   84  A    between atoms: _203  and  _204
REMARK   85  A    between atoms: _203  and  _206
REMARK   86  A    between atoms: _206  and  _207
REMARK   87  A    between atoms: _207  and  _208
REMARK   88  A    between atoms: _213  and  _215
REMARK   89  A    between atoms: _215  and  _216
REMARK   90  A    between atoms: _215  and  _218
REMARK   91  A    between atoms: _218  and  _219
REMARK   92  A    between atoms: _219  and  _220
REMARK   93  A    between atoms: _222  and  _224
REMARK   94  A    between atoms: _224  and  _225
REMARK   95  A    between atoms: _224  and  _227
REMARK   96  A    between atoms: _227  and  _228
REMARK   97  A    between atoms: _228  and  _229
REMARK   98  A    between atoms: _229  and  _230
REMARK   99  A    between atoms: _230  and  _231
REMARK  100  A    between atoms: _235  and  _237
REMARK  101  A    between atoms: _237  and  _238
REMARK  102  A    between atoms: _237  and  _240
REMARK  103  A    between atoms: _240  and  _241
REMARK  104  A    between atoms: _246  and  _248
REMARK  105  A    between atoms: _248  and  _249
REMARK  106  A    between atoms: _248  and  _251
REMARK  107  A    between atoms: _251  and  _252
REMARK  108  A    between atoms: _257  and  _259
REMARK  109  A    between atoms: _259  and  _260
REMARK  110  A    between atoms: _259  and  _262
REMARK  111  A    between atoms: _262  and  _263
REMARK  112  A    between atoms: _266  and  _268
REMARK  113  A    between atoms: _268  and  _269
REMARK  114  A    between atoms: _268  and  _271
REMARK  115  A    between atoms: _271  and  _272
REMARK  116  A    between atoms: _272  and  _273
REMARK  117  A    between atoms: _273  and  _274
REMARK  118  A    between atoms: _274  and  _275
REMARK  119  A    between atoms: _279  and  _281
REMARK  120  A    between atoms: _281  and  _282
REMARK  121  A    between atoms: _281  and  _284
REMARK  122  A    between atoms: _284  and  _285
REMARK  123  A    between atoms: _288  and  _290
REMARK  124  A    between atoms: _290  and  _291
REMARK  125  A    between atoms: _290  and  _293
REMARK  126  A    between atoms: _296  and  _298
REMARK  127  A    between atoms: _298  and  _299
REMARK  128  A    between atoms: _298  and  _301
REMARK  129  A    between atoms: _301  and  _302
REMARK  130  A    between atoms: _302  and  _303
REMARK  131  A    between atoms: _303  and  _304
REMARK  132  A    between atoms: _304  and  _305
REMARK                            x       y       z     vdW  Elec       q    Type
REMARK                         _______ _______ _______ _____ _____    ______ ____
ROOT
ATOM      1  O   HOH     1      27.131   5.895 -23.964  0.00  0.00    +0.000 OA
ENDROOT
TORSDOF 0
REMARK  Name = ../refined-set-2016/3qx9/3qx9_pocket.pdb
REMARK  132 active torsions:
REMARK  status: ('A' for Active; 'I' for Inactive)
REMARK    1  A    between atoms: _1  and  _5
REMARK    2  A    between atoms: _5  and  _6
REMARK    3  A    between atoms: _5  and  _8
REMARK    4  A    between atoms: _8  and  _9
REMARK    5  A    between atoms: _9  and  _10
REMARK    6  A    between atoms: _10  and  _11
REMARK    7  A    between atoms: _11  and  _12
REMARK    8  A    between atoms: _16  and  _18
REMARK    9  A    between atoms: _18  and  _19
REMARK   10  A    between atoms: _18  and  _21
REMARK   11  A    between atoms: _21  and  _22
REMARK   12  A    between atoms: _25  and  _27
REMARK   13  A    between atoms: _27  and  _28
REMARK   14  A    between atoms: _27  and  _30
REMARK   15  A    between atoms: _33  and  _35
REMARK   16  A    between atoms: _35  and  _36
REMARK   17  A    between atoms: _35  and  _38
REMARK   18  A    between atoms: _41  and  _43
REMARK   19  A    between atoms: _43  and  _44
REMARK   20  A    between atoms: _43  and  _46
REMARK   21  A    between atoms: _46  and  _47
REMARK   22  A    between atoms: _51  and  _52
REMARK   23  A    between atoms: _57  and  _59
REMARK   24  A    between atoms: _59  and  _60
REMARK   25  A    between atoms: _62  and  _64
REMARK   26  A    between atoms: _64  and  _65
REMARK   27  A    between atoms: _64  and  _67
REMARK   28  A    between atoms: _67  and  _68
REMARK   29  A    between atoms: _68  and  _69
REMARK   30  A    between atoms: _69  and  _70
REMARK   31  A    between atoms: _70  and  _71
REMARK   32  A    between atoms: _75  and  _77
REMARK   33  A    between atoms: _77  and  _78
REMARK   34  A    between atoms: _77  and  _80
REMARK   35  A    between atoms: _80  and  _81
REMARK   36  A    between atoms: _85  and  _86
REMARK   37  A    between atoms: _91  and  _93
REMARK   38  A    between atoms: _93  and  _94
REMARK   39  A    between atoms: _93  and  _96
REMARK   40  A    between atoms: _99  and  _101
REMARK   41  A    between atoms: _101  and  _102
REMARK   42  A    between atoms: _101  and  _104
REMARK   43  A    between atoms: _104  and  _105
REMARK   44  A    between atoms: _110  and  _111
REMARK   45  A    between atoms: _113  and  _115
REMARK   46  A    between atoms: _115  and  _116
REMARK   47  A    between atoms: _119  and  _121
REMARK   48  A    between atoms: _121  and  _122
REMARK   49  A    between atoms: _121  and  _124
REMARK   50  A    between atoms: _124  and  _125
REMARK   51  A    between atoms: _125  and  _126
REMARK   52  A    between atoms: _129  and  _131
REMARK   53  A    between atoms: _131  and  _132
REMARK   54  A    between atoms: _131  and  _134
REMARK   55  A    between atoms: _137  and  _139
REMARK   56  A    between atoms: _139  and  _140
REMARK   57  A    between atoms: _139  and  _142
REMARK   58  A    between atoms: _142  and  _143
REMARK   59  A    between atoms: _143  and  _144
REMARK   60  A    between atoms: _144  and  _145
REMARK   61  A    between atoms: _145  and  _146
REMARK   62  A    between atoms: _150  and  _152
REMARK   63  A    between atoms: _152  and  _153
REMARK   64  A    between atoms: _152  and  _155
REMARK   65  A    between atoms: _155  and  _156
REMARK   66  A    between atoms: _159  and  _161
REMARK   67  A    between atoms: _161  and  _162
REMARK   68  A    between atoms: _165  and  _167
REMARK   69  A    between atoms: _167  and  _168
REMARK   70  A    between atoms: _167  and  _170
REMARK   71  A    between atoms: _170  and  _171
REMARK   72  A    between atoms: _174  and  _176
REMARK   73  A    between atoms: _176  and  _177
REMARK   74  A    between atoms: _176  and  _179
REMARK   75  A    between atoms: _179  and  _180
REMARK   76  A    between atoms: _180  and  _181
REMARK   77  A    between atoms: _186  and  _188
REMARK   78  A    between atoms: _188  and  _189
REMARK   79  A    between atoms: _188  and  _191
REMARK   80  A    between atoms: _193  and  _195
REMARK   81  A    between atoms: _195  and  _196
REMARK   82  A    between atoms: _195  and  _198
REMARK   83  A    between atoms: _201  and  _203
REMARK   84  A    between atoms: _203  and  _204
REMARK   85  A    between atoms: _203  and  _206
REMARK   86  A    between atoms: _206  and  _207
REMARK   87  A    between atoms: _207  and  _208
REMARK   88  A    between atoms: _213  and  _215
REMARK   89  A    between atoms: _215  and  _216
REMARK   90  A    between atoms: _215  and  _218
REMARK   91  A    between atoms: _218  and  _219
REMARK   92  A    between atoms: _219  and  _220
REMARK   93  A    between atoms: _222  and  _224
REMARK   94  A    between atoms: _224  and  _225
REMARK   95  A    between atoms: _224  and  _227
REMARK   96  A    between atoms: _227  and  _228
REMARK   97  A    between atoms: _228  and  _229
REMARK   98  A    between atoms: _229  and  _230
REMARK   99  A    between atoms: _230  and  _231
REMARK  100  A    between atoms: _235  and  _237
REMARK  101  A    between atoms: _237  and  _238
REMARK  102  A    between atoms: _237  and  _240
REMARK  103  A    between atoms: _240  and  _241
REMARK  104  A    between atoms: _246  and  _248
REMARK  105  A    between atoms: _248  and  _249
REMARK  106  A    between atoms: _248  and  _251
REMARK  107  A    between atoms: _251  and  _252
REMARK  108  A    between atoms: _257  and  _259
REMARK  109  A    between atoms: _259  and  _260
REMARK  110  A    between atoms: _259  and  _262
REMARK  111  A    between atoms: _262  and  _263
REMARK  112  A    between atoms: _266  and  _268
REMARK  113  A    between atoms: _268  and  _269
REMARK  114  A    between atoms: _268  and  _271
REMARK  115  A    between atoms: _271  and  _272
REMARK  116  A    between atoms: _272  and  _273
REMARK  117  A    between atoms: _273  and  _274
REMARK  118  A    between atoms: _274  and  _275
REMARK  119  A    between atoms: _279  and  _281
REMARK  120  A    between atoms: _281  and  _282
REMARK  121  A    between atoms: _281  and  _284
REMARK  122  A    between atoms: _284  and  _285
REMARK  123  A    between atoms: _288  and  _290
REMARK  124  A    between atoms: _290  and  _291
REMARK  125  A    between atoms: _290  and  _293
REMARK  126  A    between atoms: _296  and  _298
REMARK  127  A    between atoms: _298  and  _299
REMARK  128  A    between atoms: _298  and  _301
REMARK  129  A    between atoms: _301  and  _302
REMARK  130  A    between atoms: _302  and  _303
REMARK  131  A    between atoms: _303  and  _304
REMARK  132  A    between atoms: _304  and  _305
REMARK                            x       y       z     vdW  Elec       q    Type
REMARK                         _______ _______ _______ _____ _____    ______ ____
ROOT
ATOM      1  O   HOH     1      12.129  12.192 -16.461  0.00  0.00    +0.000 OA
ENDROOT
TORSDOF 0
REMARK  Name = ../refined-set-2016/3qx9/3qx9_pocket.pdb
REMARK  132 active torsions:
REMARK  status: ('A' for Active; 'I' for Inactive)
REMARK    1  A    between atoms: _1  and  _5
REMARK    2  A    between atoms: _5  and  _6
REMARK    3  A    between atoms: _5  and  _8
REMARK    4  A    between atoms: _8  and  _9
REMARK    5  A    between atoms: _9  and  _10
REMARK    6  A    between atoms: _10  and  _11
REMARK    7  A    between atoms: _11  and  _12
REMARK    8  A    between atoms: _16  and  _18
REMARK    9  A    between atoms: _18  and  _19
REMARK   10  A    between atoms: _18  and  _21
REMARK   11  A    between atoms: _21  and  _22
REMARK   12  A    between atoms: _25  and  _27
REMARK   13  A    between atoms: _27  and  _28
REMARK   14  A    between atoms: _27  and  _30
REMARK   15  A    between atoms: _33  and  _35
REMARK   16  A    between atoms: _35  and  _36
REMARK   17  A    between atoms: _35  and  _38
REMARK   18  A    between atoms: _41  and  _43
REMARK   19  A    between atoms: _43  and  _44
REMARK   20  A    between atoms: _43  and  _46
REMARK   21  A    between atoms: _46  and  _47
REMARK   22  A    between atoms: _51  and  _52
REMARK   23  A    between atoms: _57  and  _59
REMARK   24  A    between atoms: _59  and  _60
REMARK   25  A    between atoms: _62  and  _64
REMARK   26  A    between atoms: _64  and  _65
REMARK   27  A    between atoms: _64  and  _67
REMARK   28  A    between atoms: _67  and  _68
REMARK   29  A    between atoms: _68  and  _69
REMARK   30  A    between atoms: _69  and  _70
REMARK   31  A    between atoms: _70  and  _71
REMARK   32  A    between atoms: _75  and  _77
REMARK   33  A    between atoms: _77  and  _78
REMARK   34  A    between atoms: _77  and  _80
REMARK   35  A    between atoms: _80  and  _81
REMARK   36  A    between atoms: _85  and  _86
REMARK   37  A    between atoms: _91  and  _93
REMARK   38  A    between atoms: _93  and  _94
REMARK   39  A    between atoms: _93  and  _96
REMARK   40  A    between atoms: _99  and  _101
REMARK   41  A    between atoms: _101  and  _102
REMARK   42  A    between atoms: _101  and  _104
REMARK   43  A    between atoms: _104  and  _105
REMARK   44  A    between atoms: _110  and  _111
REMARK   45  A    between atoms: _113  and  _115
REMARK   46  A    between atoms: _115  and  _116
REMARK   47  A    between atoms: _119  and  _121
REMARK   48  A    between atoms: _121  and  _122
REMARK   49  A    between atoms: _121  and  _124
REMARK   50  A    between atoms: _124  and  _125
REMARK   51  A    between atoms: _125  and  _126
REMARK   52  A    between atoms: _129  and  _131
REMARK   53  A    between atoms: _131  and  _132
REMARK   54  A    between atoms: _131  and  _134
REMARK   55  A    between atoms: _137  and  _139
REMARK   56  A    between atoms: _139  and  _140
REMARK   57  A    between atoms: _139  and  _142
REMARK   58  A    between atoms: _142  and  _143
REMARK   59  A    between atoms: _143  and  _144
REMARK   60  A    between atoms: _144  and  _145
REMARK   61  A    between atoms: _145  and  _146
REMARK   62  A    between atoms: _150  and  _152
REMARK   63  A    between atoms: _152  and  _153
REMARK   64  A    between atoms: _152  and  _155
REMARK   65  A    between atoms: _155  and  _156
REMARK   66  A    between atoms: _159  and  _161
REMARK   67  A    between atoms: _161  and  _162
REMARK   68  A    between atoms: _165  and  _167
REMARK   69  A    between atoms: _167  and  _168
REMARK   70  A    between atoms: _167  and  _170
REMARK   71  A    between atoms: _170  and  _171
REMARK   72  A    between atoms: _174  and  _176
REMARK   73  A    between atoms: _176  and  _177
REMARK   74  A    between atoms: _176  and  _179
REMARK   75  A    between atoms: _179  and  _180
REMARK   76  A    between atoms: _180  and  _181
REMARK   77  A    between atoms: _186  and  _188
REMARK   78  A    between atoms: _188  and  _189
REMARK   79  A    between atoms: _188  and  _191
REMARK   80  A    between atoms: _193  and  _195
REMARK   81  A    between atoms: _195  and  _196
REMARK   82  A    between atoms: _195  and  _198
REMARK   83  A    between atoms: _201  and  _203
REMARK   84  A    between atoms: _203  and  _204
REMARK   85  A    between atoms: _203  and  _206
REMARK   86  A    between atoms: _206  and  _207
REMARK   87  A    between atoms: _207  and  _208
REMARK   88  A    between atoms: _213  and  _215
REMARK   89  A    between atoms: _215  and  _216
REMARK   90  A    between atoms: _215  and  _218
REMARK   91  A    between atoms: _218  and  _219
REMARK   92  A    between atoms: _219  and  _220
REMARK   93  A    between atoms: _222  and  _224
REMARK   94  A    between atoms: _224  and  _225
REMARK   95  A    between atoms: _224  and  _227
REMARK   96  A    between atoms: _227  and  _228
REMARK   97  A    between atoms: _228  and  _229
REMARK   98  A    between atoms: _229  and  _230
REMARK   99  A    between atoms: _230  and  _231
REMARK  100  A    between atoms: _235  and  _237
REMARK  101  A    between atoms: _237  and  _238
REMARK  102  A    between atoms: _237  and  _240
REMARK  103  A    between atoms: _240  and  _241
REMARK  104  A    between atoms: _246  and  _248
REMARK  105  A    between atoms: _248  and  _249
REMARK  106  A    between atoms: _248  and  _251
REMARK  107  A    between atoms: _251  and  _252
REMARK  108  A    between atoms: _257  and  _259
REMARK  109  A    between atoms: _259  and  _260
REMARK  110  A    between atoms: _259  and  _262
REMARK  111  A    between atoms: _262  and  _263
REMARK  112  A    between atoms: _266  and  _268
REMARK  113  A    between atoms: _268  and  _269
REMARK  114  A    between atoms: _268  and  _271
REMARK  115  A    between atoms: _271  and  _272
REMARK  116  A    between atoms: _272  and  _273
REMARK  117  A    between atoms: _273  and  _274
REMARK  118  A    between atoms: _274  and  _275
REMARK  119  A    between atoms: _279  and  _281
REMARK  120  A    between atoms: _281  and  _282
REMARK  121  A    between atoms: _281  and  _284
REMARK  122  A    between atoms: _284  and  _285
REMARK  123  A    between atoms: _288  and  _290
REMARK  124  A    between atoms: _290  and  _291
REMARK  125  A    between atoms: _290  and  _293
REMARK  126  A    between atoms: _296  and  _298
REMARK  127  A    between atoms: _298  and  _299
REMARK  128  A    between atoms: _298  and  _301
REMARK  129  A    between atoms: _301  and  _302
REMARK  130  A    between atoms: _302  and  _303
REMARK  131  A    between atoms: _303  and  _304
REMARK  132  A    between atoms: _304  and  _305
REMARK                            x       y       z     vdW  Elec       q    Type
REMARK                         _______ _______ _______ _____ _____    ______ ____
ROOT
ATOM      1  O   HOH     1      21.961   4.108 -23.571  0.00  0.00    +0.000 OA
ENDROOT
TORSDOF 0
