REMARK  Name = ../refined-set-2016/2qg0/2qg0_pocket.pdb
REMARK  229 active torsions:
REMARK  status: ('A' for Active; 'I' for Inactive)
REMARK    1  A    between atoms: _1  and  _3
REMARK    2  A    between atoms: _3  and  _4
REMARK    3  A    between atoms: _3  and  _6
REMARK    4  A    between atoms: _6  and  _7
REMARK    5  A    between atoms: _10  and  _12
REMARK    6  A    between atoms: _12  and  _13
REMARK    7  A    between atoms: _12  and  _15
REMARK    8  A    between atoms: _15  and  _16
REMARK    9  A    between atoms: _19  and  _21
REMARK   10  A    between atoms: _21  and  _22
REMARK   11  A    between atoms: _21  and  _24
REMARK   12  A    between atoms: _24  and  _25
REMARK   13  A    between atoms: _25  and  _26
REMARK   14  A    between atoms: _29  and  _31
REMARK   15  A    between atoms: _31  and  _32
REMARK   16  A    between atoms: _31  and  _34
REMARK   17  A    between atoms: _34  and  _35
REMARK   18  A    between atoms: _38  and  _40
REMARK   19  A    between atoms: _40  and  _41
REMARK   20  A    between atoms: _40  and  _43
REMARK   21  A    between atoms: _43  and  _44
REMARK   22  A    between atoms: _47  and  _49
REMARK   23  A    between atoms: _49  and  _50
REMARK   24  A    between atoms: _49  and  _52
REMARK   25  A    between atoms: _52  and  _53
REMARK   26  A    between atoms: _55  and  _57
REMARK   27  A    between atoms: _57  and  _58
REMARK   28  A    between atoms: _57  and  _60
REMARK   29  A    between atoms: _60  and  _61
REMARK   30  A    between atoms: _66  and  _68
REMARK   31  A    between atoms: _68  and  _69
REMARK   32  A    between atoms: _68  and  _71
REMARK   33  A    between atoms: _71  and  _72
REMARK   34  A    between atoms: _74  and  _76
REMARK   35  A    between atoms: _76  and  _77
REMARK   36  A    between atoms: _76  and  _79
REMARK   37  A    between atoms: _79  and  _80
REMARK   38  A    between atoms: _82  and  _84
REMARK   39  A    between atoms: _84  and  _85
REMARK   40  A    between atoms: _84  and  _87
REMARK   41  A    between atoms: _87  and  _88
REMARK   42  A    between atoms: _91  and  _93
REMARK   43  A    between atoms: _93  and  _94
REMARK   44  A    between atoms: _97  and  _99
REMARK   45  A    between atoms: _99  and  _100
REMARK   46  A    between atoms: _99  and  _102
REMARK   47  A    between atoms: _102  and  _103
REMARK   48  A    between atoms: _106  and  _108
REMARK   49  A    between atoms: _108  and  _109
REMARK   50  A    between atoms: _108  and  _111
REMARK   51  A    between atoms: _111  and  _112
REMARK   52  A    between atoms: _115  and  _117
REMARK   53  A    between atoms: _117  and  _118
REMARK   54  A    between atoms: _117  and  _120
REMARK   55  A    between atoms: _120  and  _121
REMARK   56  A    between atoms: _121  and  _122
REMARK   57  A    between atoms: _122  and  _123
REMARK   58  A    between atoms: _123  and  _124
REMARK   59  A    between atoms: _128  and  _130
REMARK   60  A    between atoms: _130  and  _131
REMARK   61  A    between atoms: _130  and  _133
REMARK   62  A    between atoms: _133  and  _134
REMARK   63  A    between atoms: _137  and  _139
REMARK   64  A    between atoms: _139  and  _140
REMARK   65  A    between atoms: _139  and  _142
REMARK   66  A    between atoms: _142  and  _143
REMARK   67  A    between atoms: _143  and  _144
REMARK   68  A    between atoms: _147  and  _149
REMARK   69  A    between atoms: _149  and  _150
REMARK   70  A    between atoms: _149  and  _152
REMARK   71  A    between atoms: _152  and  _153
REMARK   72  A    between atoms: _156  and  _158
REMARK   73  A    between atoms: _158  and  _159
REMARK   74  A    between atoms: _158  and  _161
REMARK   75  A    between atoms: _161  and  _162
REMARK   76  A    between atoms: _165  and  _167
REMARK   77  A    between atoms: _167  and  _168
REMARK   78  A    between atoms: _167  and  _170
REMARK   79  A    between atoms: _173  and  _175
REMARK   80  A    between atoms: _175  and  _176
REMARK   81  A    between atoms: _175  and  _178
REMARK   82  A    between atoms: _178  and  _179
REMARK   83  A    between atoms: _182  and  _184
REMARK   84  A    between atoms: _184  and  _185
REMARK   85  A    between atoms: _184  and  _187
REMARK   86  A    between atoms: _187  and  _188
REMARK   87  A    between atoms: _191  and  _193
REMARK   88  A    between atoms: _193  and  _194
REMARK   89  A    between atoms: _196  and  _198
REMARK   90  A    between atoms: _198  and  _199
REMARK   91  A    between atoms: _198  and  _201
REMARK   92  A    between atoms: _201  and  _202
REMARK   93  A    between atoms: _205  and  _207
REMARK   94  A    between atoms: _207  and  _208
REMARK   95  A    between atoms: _210  and  _212
REMARK   96  A    between atoms: _212  and  _213
REMARK   97  A    between atoms: _212  and  _215
REMARK   98  A    between atoms: _215  and  _216
REMARK   99  A    between atoms: _216  and  _217
REMARK  100  A    between atoms: _219  and  _221
REMARK  101  A    between atoms: _221  and  _222
REMARK  102  A    between atoms: _221  and  _224
REMARK  103  A    between atoms: _224  and  _225
REMARK  104  A    between atoms: _228  and  _230
REMARK  105  A    between atoms: _230  and  _231
REMARK  106  A    between atoms: _230  and  _233
REMARK  107  A    between atoms: _233  and  _234
REMARK  108  A    between atoms: _237  and  _239
REMARK  109  A    between atoms: _239  and  _240
REMARK  110  A    between atoms: _239  and  _242
REMARK  111  A    between atoms: _242  and  _243
REMARK  112  A    between atoms: _246  and  _248
REMARK  113  A    between atoms: _248  and  _249
REMARK  114  A    between atoms: _248  and  _251
REMARK  115  A    between atoms: _251  and  _252
REMARK  116  A    between atoms: _257  and  _259
REMARK  117  A    between atoms: _259  and  _260
REMARK  118  A    between atoms: _259  and  _262
REMARK  119  A    between atoms: _262  and  _263
REMARK  120  A    between atoms: _268  and  _270
REMARK  121  A    between atoms: _270  and  _271
REMARK  122  A    between atoms: _270  and  _273
REMARK  123  A    between atoms: _273  and  _274
REMARK  124  A    between atoms: _277  and  _279
REMARK  125  A    between atoms: _279  and  _280
REMARK  126  A    between atoms: _282  and  _284
REMARK  127  A    between atoms: _284  and  _285
REMARK  128  A    between atoms: _284  and  _287
REMARK  129  A    between atoms: _287  and  _288
REMARK  130  A    between atoms: _291  and  _293
REMARK  131  A    between atoms: _293  and  _294
REMARK  132  A    between atoms: _293  and  _296
REMARK  133  A    between atoms: _296  and  _297
REMARK  134  A    between atoms: _300  and  _302
REMARK  135  A    between atoms: _302  and  _303
REMARK  136  A    between atoms: _306  and  _308
REMARK  137  A    between atoms: _308  and  _309
REMARK  138  A    between atoms: _308  and  _311
REMARK  139  A    between atoms: _311  and  _312
REMARK  140  A    between atoms: _312  and  _313
REMARK  141  A    between atoms: _313  and  _314
REMARK  142  A    between atoms: _314  and  _315
REMARK  143  A    between atoms: _319  and  _321
REMARK  144  A    between atoms: _321  and  _322
REMARK  145  A    between atoms: _321  and  _324
REMARK  146  A    between atoms: _324  and  _325
REMARK  147  A    between atoms: _327  and  _329
REMARK  148  A    between atoms: _329  and  _330
REMARK  149  A    between atoms: _332  and  _334
REMARK  150  A    between atoms: _334  and  _335
REMARK  151  A    between atoms: _334  and  _337
REMARK  152  A    between atoms: _337  and  _338
REMARK  153  A    between atoms: _341  and  _343
REMARK  154  A    between atoms: _343  and  _344
REMARK  155  A    between atoms: _343  and  _346
REMARK  156  A    between atoms: _346  and  _347
REMARK  157  A    between atoms: _350  and  _352
REMARK  158  A    between atoms: _352  and  _353
REMARK  159  A    between atoms: _355  and  _357
REMARK  160  A    between atoms: _357  and  _358
REMARK  161  A    between atoms: _357  and  _360
REMARK  162  A    between atoms: _360  and  _361
REMARK  163  A    between atoms: _367  and  _369
REMARK  164  A    between atoms: _369  and  _370
REMARK  165  A    between atoms: _372  and  _374
REMARK  166  A    between atoms: _374  and  _375
REMARK  167  A    between atoms: _374  and  _377
REMARK  168  A    between atoms: _380  and  _382
REMARK  169  A    between atoms: _382  and  _383
REMARK  170  A    between atoms: _385  and  _387
REMARK  171  A    between atoms: _387  and  _388
REMARK  172  A    between atoms: _387  and  _390
REMARK  173  A    between atoms: _390  and  _391
REMARK  174  A    between atoms: _397  and  _399
REMARK  175  A    between atoms: _399  and  _400
REMARK  176  A    between atoms: _399  and  _402
REMARK  177  A    between atoms: _402  and  _403
REMARK  178  A    between atoms: _408  and  _409
REMARK  179  A    between atoms: _411  and  _413
REMARK  180  A    between atoms: _413  and  _414
REMARK  181  A    between atoms: _413  and  _416
REMARK  182  A    between atoms: _416  and  _417
REMARK  183  A    between atoms: _419  and  _421
REMARK  184  A    between atoms: _421  and  _422
REMARK  185  A    between atoms: _425  and  _427
REMARK  186  A    between atoms: _427  and  _428
REMARK  187  A    between atoms: _427  and  _430
REMARK  188  A    between atoms: _433  and  _435
REMARK  189  A    between atoms: _435  and  _436
REMARK  190  A    between atoms: _435  and  _438
REMARK  191  A    between atoms: _438  and  _439
REMARK  192  A    between atoms: _442  and  _444
REMARK  193  A    between atoms: _444  and  _445
REMARK  194  A    between atoms: _444  and  _447
REMARK  195  A    between atoms: _447  and  _448
REMARK  196  A    between atoms: _451  and  _453
REMARK  197  A    between atoms: _453  and  _454
REMARK  198  A    between atoms: _453  and  _456
REMARK  199  A    between atoms: _456  and  _457
REMARK  200  A    between atoms: _457  and  _458
REMARK  201  A    between atoms: _458  and  _459
REMARK  202  A    between atoms: _459  and  _460
REMARK  203  A    between atoms: _464  and  _466
REMARK  204  A    between atoms: _466  and  _467
REMARK  205  A    between atoms: _466  and  _469
REMARK  206  A    between atoms: _469  and  _470
REMARK  207  A    between atoms: _475  and  _477
REMARK  208  A    between atoms: _477  and  _478
REMARK  209  A    between atoms: _480  and  _482
REMARK  210  A    between atoms: _482  and  _483
REMARK  211  A    between atoms: _482  and  _485
REMARK  212  A    between atoms: _485  and  _486
REMARK  213  A    between atoms: _489  and  _491
REMARK  214  A    between atoms: _491  and  _492
REMARK  215  A    between atoms: _491  and  _494
REMARK  216  A    between atoms: _494  and  _495
REMARK  217  A    between atoms: _495  and  _496
REMARK  218  A    between atoms: _496  and  _497
REMARK  219  A    between atoms: _497  and  _498
REMARK  220  A    between atoms: _502  and  _504
REMARK  221  A    between atoms: _504  and  _505
REMARK  222  A    between atoms: _504  and  _507
REMARK  223  A    between atoms: _510  and  _512
REMARK  224  A    between atoms: _512  and  _513
REMARK  225  A    between atoms: _512  and  _515
REMARK  226  A    between atoms: _515  and  _516
REMARK  227  A    between atoms: _516  and  _517
REMARK  228  A    between atoms: _517  and  _518
REMARK  229  A    between atoms: _518  and  _519
REMARK                            x       y       z     vdW  Elec       q    Type
REMARK                         _______ _______ _______ _____ _____    ______ ____
ROOT
ATOM      1  CA  ILE A   1      23.563  29.228   1.162  0.00  0.00    +0.133 C 
ENDROOT
BRANCH   1   2
ATOM      2  N   ILE A   1      24.551  28.729   0.219  0.00  0.00    -0.239 NA
ATOM      3  H   ILE A   1      25.558  28.727   0.477  0.00  0.00    +0.142 HD
ENDBRANCH   1   2
BRANCH   1   4
ATOM      4  CB  ILE A   1      24.180  29.464   2.558  0.00  0.00    +0.023 C 
ATOM      5  CG2 ILE A   1      23.150  30.122   3.468  0.00  0.00    +0.002 C 
BRANCH   4   6
ATOM      6  CG1 ILE A   1      24.654  28.135   3.156  0.00  0.00    +0.002 C 
ATOM      7  CD1 ILE A   1      23.531  27.149   3.438  0.00  0.00    +0.000 C 
ENDBRANCH   4   6
ENDBRANCH   1   4
BRANCH   1   8
ATOM      8  C   ILE A   1      22.992  30.543   0.610  0.00  0.00    +0.224 C 
ATOM      9  O   ILE A   1      21.776  30.729   0.581  0.00  0.00    -0.287 OA
ENDBRANCH   1   8
TORSDOF 4
REMARK  Name = ../refined-set-2016/2qg0/2qg0_pocket.pdb
REMARK  229 active torsions:
REMARK  status: ('A' for Active; 'I' for Inactive)
REMARK    1  A    between atoms: _1  and  _3
REMARK    2  A    between atoms: _3  and  _4
REMARK    3  A    between atoms: _3  and  _6
REMARK    4  A    between atoms: _6  and  _7
REMARK    5  A    between atoms: _10  and  _12
REMARK    6  A    between atoms: _12  and  _13
REMARK    7  A    between atoms: _12  and  _15
REMARK    8  A    between atoms: _15  and  _16
REMARK    9  A    between atoms: _19  and  _21
REMARK   10  A    between atoms: _21  and  _22
REMARK   11  A    between atoms: _21  and  _24
REMARK   12  A    between atoms: _24  and  _25
REMARK   13  A    between atoms: _25  and  _26
REMARK   14  A    between atoms: _29  and  _31
REMARK   15  A    between atoms: _31  and  _32
REMARK   16  A    between atoms: _31  and  _34
REMARK   17  A    between atoms: _34  and  _35
REMARK   18  A    between atoms: _38  and  _40
REMARK   19  A    between atoms: _40  and  _41
REMARK   20  A    between atoms: _40  and  _43
REMARK   21  A    between atoms: _43  and  _44
REMARK   22  A    between atoms: _47  and  _49
REMARK   23  A    between atoms: _49  and  _50
REMARK   24  A    between atoms: _49  and  _52
REMARK   25  A    between atoms: _52  and  _53
REMARK   26  A    between atoms: _55  and  _57
REMARK   27  A    between atoms: _57  and  _58
REMARK   28  A    between atoms: _57  and  _60
REMARK   29  A    between atoms: _60  and  _61
REMARK   30  A    between atoms: _66  and  _68
REMARK   31  A    between atoms: _68  and  _69
REMARK   32  A    between atoms: _68  and  _71
REMARK   33  A    between atoms: _71  and  _72
REMARK   34  A    between atoms: _74  and  _76
REMARK   35  A    between atoms: _76  and  _77
REMARK   36  A    between atoms: _76  and  _79
REMARK   37  A    between atoms: _79  and  _80
REMARK   38  A    between atoms: _82  and  _84
REMARK   39  A    between atoms: _84  and  _85
REMARK   40  A    between atoms: _84  and  _87
REMARK   41  A    between atoms: _87  and  _88
REMARK   42  A    between atoms: _91  and  _93
REMARK   43  A    between atoms: _93  and  _94
REMARK   44  A    between atoms: _97  and  _99
REMARK   45  A    between atoms: _99  and  _100
REMARK   46  A    between atoms: _99  and  _102
REMARK   47  A    between atoms: _102  and  _103
REMARK   48  A    between atoms: _106  and  _108
REMARK   49  A    between atoms: _108  and  _109
REMARK   50  A    between atoms: _108  and  _111
REMARK   51  A    between atoms: _111  and  _112
REMARK   52  A    between atoms: _115  and  _117
REMARK   53  A    between atoms: _117  and  _118
REMARK   54  A    between atoms: _117  and  _120
REMARK   55  A    between atoms: _120  and  _121
REMARK   56  A    between atoms: _121  and  _122
REMARK   57  A    between atoms: _122  and  _123
REMARK   58  A    between atoms: _123  and  _124
REMARK   59  A    between atoms: _128  and  _130
REMARK   60  A    between atoms: _130  and  _131
REMARK   61  A    between atoms: _130  and  _133
REMARK   62  A    between atoms: _133  and  _134
REMARK   63  A    between atoms: _137  and  _139
REMARK   64  A    between atoms: _139  and  _140
REMARK   65  A    between atoms: _139  and  _142
REMARK   66  A    between atoms: _142  and  _143
REMARK   67  A    between atoms: _143  and  _144
REMARK   68  A    between atoms: _147  and  _149
REMARK   69  A    between atoms: _149  and  _150
REMARK   70  A    between atoms: _149  and  _152
REMARK   71  A    between atoms: _152  and  _153
REMARK   72  A    between atoms: _156  and  _158
REMARK   73  A    between atoms: _158  and  _159
REMARK   74  A    between atoms: _158  and  _161
REMARK   75  A    between atoms: _161  and  _162
REMARK   76  A    between atoms: _165  and  _167
REMARK   77  A    between atoms: _167  and  _168
REMARK   78  A    between atoms: _167  and  _170
REMARK   79  A    between atoms: _173  and  _175
REMARK   80  A    between atoms: _175  and  _176
REMARK   81  A    between atoms: _175  and  _178
REMARK   82  A    between atoms: _178  and  _179
REMARK   83  A    between atoms: _182  and  _184
REMARK   84  A    between atoms: _184  and  _185
REMARK   85  A    between atoms: _184  and  _187
REMARK   86  A    between atoms: _187  and  _188
REMARK   87  A    between atoms: _191  and  _193
REMARK   88  A    between atoms: _193  and  _194
REMARK   89  A    between atoms: _196  and  _198
REMARK   90  A    between atoms: _198  and  _199
REMARK   91  A    between atoms: _198  and  _201
REMARK   92  A    between atoms: _201  and  _202
REMARK   93  A    between atoms: _205  and  _207
REMARK   94  A    between atoms: _207  and  _208
REMARK   95  A    between atoms: _210  and  _212
REMARK   96  A    between atoms: _212  and  _213
REMARK   97  A    between atoms: _212  and  _215
REMARK   98  A    between atoms: _215  and  _216
REMARK   99  A    between atoms: _216  and  _217
REMARK  100  A    between atoms: _219  and  _221
REMARK  101  A    between atoms: _221  and  _222
REMARK  102  A    between atoms: _221  and  _224
REMARK  103  A    between atoms: _224  and  _225
REMARK  104  A    between atoms: _228  and  _230
REMARK  105  A    between atoms: _230  and  _231
REMARK  106  A    between atoms: _230  and  _233
REMARK  107  A    between atoms: _233  and  _234
REMARK  108  A    between atoms: _237  and  _239
REMARK  109  A    between atoms: _239  and  _240
REMARK  110  A    between atoms: _239  and  _242
REMARK  111  A    between atoms: _242  and  _243
REMARK  112  A    between atoms: _246  and  _248
REMARK  113  A    between atoms: _248  and  _249
REMARK  114  A    between atoms: _248  and  _251
REMARK  115  A    between atoms: _251  and  _252
REMARK  116  A    between atoms: _257  and  _259
REMARK  117  A    between atoms: _259  and  _260
REMARK  118  A    between atoms: _259  and  _262
REMARK  119  A    between atoms: _262  and  _263
REMARK  120  A    between atoms: _268  and  _270
REMARK  121  A    between atoms: _270  and  _271
REMARK  122  A    between atoms: _270  and  _273
REMARK  123  A    between atoms: _273  and  _274
REMARK  124  A    between atoms: _277  and  _279
REMARK  125  A    between atoms: _279  and  _280
REMARK  126  A    between atoms: _282  and  _284
REMARK  127  A    between atoms: _284  and  _285
REMARK  128  A    between atoms: _284  and  _287
REMARK  129  A    between atoms: _287  and  _288
REMARK  130  A    between atoms: _291  and  _293
REMARK  131  A    between atoms: _293  and  _294
REMARK  132  A    between atoms: _293  and  _296
REMARK  133  A    between atoms: _296  and  _297
REMARK  134  A    between atoms: _300  and  _302
REMARK  135  A    between atoms: _302  and  _303
REMARK  136  A    between atoms: _306  and  _308
REMARK  137  A    between atoms: _308  and  _309
REMARK  138  A    between atoms: _308  and  _311
REMARK  139  A    between atoms: _311  and  _312
REMARK  140  A    between atoms: _312  and  _313
REMARK  141  A    between atoms: _313  and  _314
REMARK  142  A    between atoms: _314  and  _315
REMARK  143  A    between atoms: _319  and  _321
REMARK  144  A    between atoms: _321  and  _322
REMARK  145  A    between atoms: _321  and  _324
REMARK  146  A    between atoms: _324  and  _325
REMARK  147  A    between atoms: _327  and  _329
REMARK  148  A    between atoms: _329  and  _330
REMARK  149  A    between atoms: _332  and  _334
REMARK  150  A    between atoms: _334  and  _335
REMARK  151  A    between atoms: _334  and  _337
REMARK  152  A    between atoms: _337  and  _338
REMARK  153  A    between atoms: _341  and  _343
REMARK  154  A    between atoms: _343  and  _344
REMARK  155  A    between atoms: _343  and  _346
REMARK  156  A    between atoms: _346  and  _347
REMARK  157  A    between atoms: _350  and  _352
REMARK  158  A    between atoms: _352  and  _353
REMARK  159  A    between atoms: _355  and  _357
REMARK  160  A    between atoms: _357  and  _358
REMARK  161  A    between atoms: _357  and  _360
REMARK  162  A    between atoms: _360  and  _361
REMARK  163  A    between atoms: _367  and  _369
REMARK  164  A    between atoms: _369  and  _370
REMARK  165  A    between atoms: _372  and  _374
REMARK  166  A    between atoms: _374  and  _375
REMARK  167  A    between atoms: _374  and  _377
REMARK  168  A    between atoms: _380  and  _382
REMARK  169  A    between atoms: _382  and  _383
REMARK  170  A    between atoms: _385  and  _387
REMARK  171  A    between atoms: _387  and  _388
REMARK  172  A    between atoms: _387  and  _390
REMARK  173  A    between atoms: _390  and  _391
REMARK  174  A    between atoms: _397  and  _399
REMARK  175  A    between atoms: _399  and  _400
REMARK  176  A    between atoms: _399  and  _402
REMARK  177  A    between atoms: _402  and  _403
REMARK  178  A    between atoms: _408  and  _409
REMARK  179  A    between atoms: _411  and  _413
REMARK  180  A    between atoms: _413  and  _414
REMARK  181  A    between atoms: _413  and  _416
REMARK  182  A    between atoms: _416  and  _417
REMARK  183  A    between atoms: _419  and  _421
REMARK  184  A    between atoms: _421  and  _422
REMARK  185  A    between atoms: _425  and  _427
REMARK  186  A    between atoms: _427  and  _428
REMARK  187  A    between atoms: _427  and  _430
REMARK  188  A    between atoms: _433  and  _435
REMARK  189  A    between atoms: _435  and  _436
REMARK  190  A    between atoms: _435  and  _438
REMARK  191  A    between atoms: _438  and  _439
REMARK  192  A    between atoms: _442  and  _444
REMARK  193  A    between atoms: _444  and  _445
REMARK  194  A    between atoms: _444  and  _447
REMARK  195  A    between atoms: _447  and  _448
REMARK  196  A    between atoms: _451  and  _453
REMARK  197  A    between atoms: _453  and  _454
REMARK  198  A    between atoms: _453  and  _456
REMARK  199  A    between atoms: _456  and  _457
REMARK  200  A    between atoms: _457  and  _458
REMARK  201  A    between atoms: _458  and  _459
REMARK  202  A    between atoms: _459  and  _460
REMARK  203  A    between atoms: _464  and  _466
REMARK  204  A    between atoms: _466  and  _467
REMARK  205  A    between atoms: _466  and  _469
REMARK  206  A    between atoms: _469  and  _470
REMARK  207  A    between atoms: _475  and  _477
REMARK  208  A    between atoms: _477  and  _478
REMARK  209  A    between atoms: _480  and  _482
REMARK  210  A    between atoms: _482  and  _483
REMARK  211  A    between atoms: _482  and  _485
REMARK  212  A    between atoms: _485  and  _486
REMARK  213  A    between atoms: _489  and  _491
REMARK  214  A    between atoms: _491  and  _492
REMARK  215  A    between atoms: _491  and  _494
REMARK  216  A    between atoms: _494  and  _495
REMARK  217  A    between atoms: _495  and  _496
REMARK  218  A    between atoms: _496  and  _497
REMARK  219  A    between atoms: _497  and  _498
REMARK  220  A    between atoms: _502  and  _504
REMARK  221  A    between atoms: _504  and  _505
REMARK  222  A    between atoms: _504  and  _507
REMARK  223  A    between atoms: _510  and  _512
REMARK  224  A    between atoms: _512  and  _513
REMARK  225  A    between atoms: _512  and  _515
REMARK  226  A    between atoms: _515  and  _516
REMARK  227  A    between atoms: _516  and  _517
REMARK  228  A    between atoms: _517  and  _518
REMARK  229  A    between atoms: _518  and  _519
REMARK                            x       y       z     vdW  Elec       q    Type
REMARK                         _______ _______ _______ _____ _____    ______ ____
ROOT
ATOM      1  CA  LEU A   1      19.344  29.326  -1.452  0.00  0.00    +0.133 C 
ENDROOT
BRANCH   1   2
ATOM      2  N   LEU A   1      20.582  29.843  -2.018  0.00  0.00    -0.239 NA
ATOM      3  H   LEU A   1      21.487  29.582  -1.577  0.00  0.00    +0.142 HD
ENDBRANCH   1   2
BRANCH   1   4
ATOM      4  C   LEU A   1      18.505  30.492  -0.945  0.00  0.00    +0.224 C 
ATOM      5  O   LEU A   1      17.305  30.574  -1.208  0.00  0.00    -0.287 OA
ENDBRANCH   1   4
BRANCH   1   6
ATOM      6  CB  LEU A   1      19.669  28.352  -0.309  0.00  0.00    +0.025 C 
BRANCH   6   7
ATOM      7  CG  LEU A   1      18.579  27.885   0.659  0.00  0.00    +0.002 C 
ATOM      8  CD2 LEU A   1      18.280  28.994   1.658  0.00  0.00    +0.000 C 
ATOM      9  CD1 LEU A   1      17.333  27.469  -0.112  0.00  0.00    +0.000 C 
ENDBRANCH   6   7
ENDBRANCH   1   6
TORSDOF 4
REMARK  Name = ../refined-set-2016/2qg0/2qg0_pocket.pdb
REMARK  229 active torsions:
REMARK  status: ('A' for Active; 'I' for Inactive)
REMARK    1  A    between atoms: _1  and  _3
REMARK    2  A    between atoms: _3  and  _4
REMARK    3  A    between atoms: _3  and  _6
REMARK    4  A    between atoms: _6  and  _7
REMARK    5  A    between atoms: _10  and  _12
REMARK    6  A    between atoms: _12  and  _13
REMARK    7  A    between atoms: _12  and  _15
REMARK    8  A    between atoms: _15  and  _16
REMARK    9  A    between atoms: _19  and  _21
REMARK   10  A    between atoms: _21  and  _22
REMARK   11  A    between atoms: _21  and  _24
REMARK   12  A    between atoms: _24  and  _25
REMARK   13  A    between atoms: _25  and  _26
REMARK   14  A    between atoms: _29  and  _31
REMARK   15  A    between atoms: _31  and  _32
REMARK   16  A    between atoms: _31  and  _34
REMARK   17  A    between atoms: _34  and  _35
REMARK   18  A    between atoms: _38  and  _40
REMARK   19  A    between atoms: _40  and  _41
REMARK   20  A    between atoms: _40  and  _43
REMARK   21  A    between atoms: _43  and  _44
REMARK   22  A    between atoms: _47  and  _49
REMARK   23  A    between atoms: _49  and  _50
REMARK   24  A    between atoms: _49  and  _52
REMARK   25  A    between atoms: _52  and  _53
REMARK   26  A    between atoms: _55  and  _57
REMARK   27  A    between atoms: _57  and  _58
REMARK   28  A    between atoms: _57  and  _60
REMARK   29  A    between atoms: _60  and  _61
REMARK   30  A    between atoms: _66  and  _68
REMARK   31  A    between atoms: _68  and  _69
REMARK   32  A    between atoms: _68  and  _71
REMARK   33  A    between atoms: _71  and  _72
REMARK   34  A    between atoms: _74  and  _76
REMARK   35  A    between atoms: _76  and  _77
REMARK   36  A    between atoms: _76  and  _79
REMARK   37  A    between atoms: _79  and  _80
REMARK   38  A    between atoms: _82  and  _84
REMARK   39  A    between atoms: _84  and  _85
REMARK   40  A    between atoms: _84  and  _87
REMARK   41  A    between atoms: _87  and  _88
REMARK   42  A    between atoms: _91  and  _93
REMARK   43  A    between atoms: _93  and  _94
REMARK   44  A    between atoms: _97  and  _99
REMARK   45  A    between atoms: _99  and  _100
REMARK   46  A    between atoms: _99  and  _102
REMARK   47  A    between atoms: _102  and  _103
REMARK   48  A    between atoms: _106  and  _108
REMARK   49  A    between atoms: _108  and  _109
REMARK   50  A    between atoms: _108  and  _111
REMARK   51  A    between atoms: _111  and  _112
REMARK   52  A    between atoms: _115  and  _117
REMARK   53  A    between atoms: _117  and  _118
REMARK   54  A    between atoms: _117  and  _120
REMARK   55  A    between atoms: _120  and  _121
REMARK   56  A    between atoms: _121  and  _122
REMARK   57  A    between atoms: _122  and  _123
REMARK   58  A    between atoms: _123  and  _124
REMARK   59  A    between atoms: _128  and  _130
REMARK   60  A    between atoms: _130  and  _131
REMARK   61  A    between atoms: _130  and  _133
REMARK   62  A    between atoms: _133  and  _134
REMARK   63  A    between atoms: _137  and  _139
REMARK   64  A    between atoms: _139  and  _140
REMARK   65  A    between atoms: _139  and  _142
REMARK   66  A    between atoms: _142  and  _143
REMARK   67  A    between atoms: _143  and  _144
REMARK   68  A    between atoms: _147  and  _149
REMARK   69  A    between atoms: _149  and  _150
REMARK   70  A    between atoms: _149  and  _152
REMARK   71  A    between atoms: _152  and  _153
REMARK   72  A    between atoms: _156  and  _158
REMARK   73  A    between atoms: _158  and  _159
REMARK   74  A    between atoms: _158  and  _161
REMARK   75  A    between atoms: _161  and  _162
REMARK   76  A    between atoms: _165  and  _167
REMARK   77  A    between atoms: _167  and  _168
REMARK   78  A    between atoms: _167  and  _170
REMARK   79  A    between atoms: _173  and  _175
REMARK   80  A    between atoms: _175  and  _176
REMARK   81  A    between atoms: _175  and  _178
REMARK   82  A    between atoms: _178  and  _179
REMARK   83  A    between atoms: _182  and  _184
REMARK   84  A    between atoms: _184  and  _185
REMARK   85  A    between atoms: _184  and  _187
REMARK   86  A    between atoms: _187  and  _188
REMARK   87  A    between atoms: _191  and  _193
REMARK   88  A    between atoms: _193  and  _194
REMARK   89  A    between atoms: _196  and  _198
REMARK   90  A    between atoms: _198  and  _199
REMARK   91  A    between atoms: _198  and  _201
REMARK   92  A    between atoms: _201  and  _202
REMARK   93  A    between atoms: _205  and  _207
REMARK   94  A    between atoms: _207  and  _208
REMARK   95  A    between atoms: _210  and  _212
REMARK   96  A    between atoms: _212  and  _213
REMARK   97  A    between atoms: _212  and  _215
REMARK   98  A    between atoms: _215  and  _216
REMARK   99  A    between atoms: _216  and  _217
REMARK  100  A    between atoms: _219  and  _221
REMARK  101  A    between atoms: _221  and  _222
REMARK  102  A    between atoms: _221  and  _224
REMARK  103  A    between atoms: _224  and  _225
REMARK  104  A    between atoms: _228  and  _230
REMARK  105  A    between atoms: _230  and  _231
REMARK  106  A    between atoms: _230  and  _233
REMARK  107  A    between atoms: _233  and  _234
REMARK  108  A    between atoms: _237  and  _239
REMARK  109  A    between atoms: _239  and  _240
REMARK  110  A    between atoms: _239  and  _242
REMARK  111  A    between atoms: _242  and  _243
REMARK  112  A    between atoms: _246  and  _248
REMARK  113  A    between atoms: _248  and  _249
REMARK  114  A    between atoms: _248  and  _251
REMARK  115  A    between atoms: _251  and  _252
REMARK  116  A    between atoms: _257  and  _259
REMARK  117  A    between atoms: _259  and  _260
REMARK  118  A    between atoms: _259  and  _262
REMARK  119  A    between atoms: _262  and  _263
REMARK  120  A    between atoms: _268  and  _270
REMARK  121  A    between atoms: _270  and  _271
REMARK  122  A    between atoms: _270  and  _273
REMARK  123  A    between atoms: _273  and  _274
REMARK  124  A    between atoms: _277  and  _279
REMARK  125  A    between atoms: _279  and  _280
REMARK  126  A    between atoms: _282  and  _284
REMARK  127  A    between atoms: _284  and  _285
REMARK  128  A    between atoms: _284  and  _287
REMARK  129  A    between atoms: _287  and  _288
REMARK  130  A    between atoms: _291  and  _293
REMARK  131  A    between atoms: _293  and  _294
REMARK  132  A    between atoms: _293  and  _296
REMARK  133  A    between atoms: _296  and  _297
REMARK  134  A    between atoms: _300  and  _302
REMARK  135  A    between atoms: _302  and  _303
REMARK  136  A    between atoms: _306  and  _308
REMARK  137  A    between atoms: _308  and  _309
REMARK  138  A    between atoms: _308  and  _311
REMARK  139  A    between atoms: _311  and  _312
REMARK  140  A    between atoms: _312  and  _313
REMARK  141  A    between atoms: _313  and  _314
REMARK  142  A    between atoms: _314  and  _315
REMARK  143  A    between atoms: _319  and  _321
REMARK  144  A    between atoms: _321  and  _322
REMARK  145  A    between atoms: _321  and  _324
REMARK  146  A    between atoms: _324  and  _325
REMARK  147  A    between atoms: _327  and  _329
REMARK  148  A    between atoms: _329  and  _330
REMARK  149  A    between atoms: _332  and  _334
REMARK  150  A    between atoms: _334  and  _335
REMARK  151  A    between atoms: _334  and  _337
REMARK  152  A    between atoms: _337  and  _338
REMARK  153  A    between atoms: _341  and  _343
REMARK  154  A    between atoms: _343  and  _344
REMARK  155  A    between atoms: _343  and  _346
REMARK  156  A    between atoms: _346  and  _347
REMARK  157  A    between atoms: _350  and  _352
REMARK  158  A    between atoms: _352  and  _353
REMARK  159  A    between atoms: _355  and  _357
REMARK  160  A    between atoms: _357  and  _358
REMARK  161  A    between atoms: _357  and  _360
REMARK  162  A    between atoms: _360  and  _361
REMARK  163  A    between atoms: _367  and  _369
REMARK  164  A    between atoms: _369  and  _370
REMARK  165  A    between atoms: _372  and  _374
REMARK  166  A    between atoms: _374  and  _375
REMARK  167  A    between atoms: _374  and  _377
REMARK  168  A    between atoms: _380  and  _382
REMARK  169  A    between atoms: _382  and  _383
REMARK  170  A    between atoms: _385  and  _387
REMARK  171  A    between atoms: _387  and  _388
REMARK  172  A    between atoms: _387  and  _390
REMARK  173  A    between atoms: _390  and  _391
REMARK  174  A    between atoms: _397  and  _399
REMARK  175  A    between atoms: _399  and  _400
REMARK  176  A    between atoms: _399  and  _402
REMARK  177  A    between atoms: _402  and  _403
REMARK  178  A    between atoms: _408  and  _409
REMARK  179  A    between atoms: _411  and  _413
REMARK  180  A    between atoms: _413  and  _414
REMARK  181  A    between atoms: _413  and  _416
REMARK  182  A    between atoms: _416  and  _417
REMARK  183  A    between atoms: _419  and  _421
REMARK  184  A    between atoms: _421  and  _422
REMARK  185  A    between atoms: _425  and  _427
REMARK  186  A    between atoms: _427  and  _428
REMARK  187  A    between atoms: _427  and  _430
REMARK  188  A    between atoms: _433  and  _435
REMARK  189  A    between atoms: _435  and  _436
REMARK  190  A    between atoms: _435  and  _438
REMARK  191  A    between atoms: _438  and  _439
REMARK  192  A    between atoms: _442  and  _444
REMARK  193  A    between atoms: _444  and  _445
REMARK  194  A    between atoms: _444  and  _447
REMARK  195  A    between atoms: _447  and  _448
REMARK  196  A    between atoms: _451  and  _453
REMARK  197  A    between atoms: _453  and  _454
REMARK  198  A    between atoms: _453  and  _456
REMARK  199  A    between atoms: _456  and  _457
REMARK  200  A    between atoms: _457  and  _458
REMARK  201  A    between atoms: _458  and  _459
REMARK  202  A    between atoms: _459  and  _460
REMARK  203  A    between atoms: _464  and  _466
REMARK  204  A    between atoms: _466  and  _467
REMARK  205  A    between atoms: _466  and  _469
REMARK  206  A    between atoms: _469  and  _470
REMARK  207  A    between atoms: _475  and  _477
REMARK  208  A    between atoms: _477  and  _478
REMARK  209  A    between atoms: _480  and  _482
REMARK  210  A    between atoms: _482  and  _483
REMARK  211  A    between atoms: _482  and  _485
REMARK  212  A    between atoms: _485  and  _486
REMARK  213  A    between atoms: _489  and  _491
REMARK  214  A    between atoms: _491  and  _492
REMARK  215  A    between atoms: _491  and  _494
REMARK  216  A    between atoms: _494  and  _495
REMARK  217  A    between atoms: _495  and  _496
REMARK  218  A    between atoms: _496  and  _497
REMARK  219  A    between atoms: _497  and  _498
REMARK  220  A    between atoms: _502  and  _504
REMARK  221  A    between atoms: _504  and  _505
REMARK  222  A    between atoms: _504  and  _507
REMARK  223  A    between atoms: _510  and  _512
REMARK  224  A    between atoms: _512  and  _513
REMARK  225  A    between atoms: _512  and  _515
REMARK  226  A    between atoms: _515  and  _516
REMARK  227  A    between atoms: _516  and  _517
REMARK  228  A    between atoms: _517  and  _518
REMARK  229  A    between atoms: _518  and  _519
REMARK                            x       y       z     vdW  Elec       q    Type
REMARK                         _______ _______ _______ _____ _____    ______ ____
ROOT
ATOM      1  CA  SER A   7      11.647  21.169  19.375  0.00  0.00    +0.178 C 
ENDROOT
BRANCH   1   2
ATOM      2  C   SER A   7      12.896  20.279  19.370  0.00  0.00    +0.243 C 
ATOM      3  O   SER A   7      13.206  19.608  20.364  0.00  0.00    -0.273 OA
ATOM      4  N   ASP A   8      13.613  20.267  18.249  0.00  0.00    -0.296 N 
ATOM      5  H   ASP A   8      13.311  20.839  17.435  0.00  0.00    +0.150 HD
BRANCH   4   6
ATOM      6  CA  ASP A   8      14.823  19.454  18.158  0.00  0.00    +0.160 C 
BRANCH   6   7
ATOM      7  C   ASP A   8      15.879  19.945  19.141  0.00  0.00    +0.241 C 
ATOM      8  O   ASP A   8      16.563  19.141  19.769  0.00  0.00    -0.273 OA
ATOM      9  N   ALA A   9      16.017  21.263  19.270  0.00  0.00    -0.297 N 
ATOM     10  H   ALA A   9      15.418  21.898  18.704  0.00  0.00    +0.150 HD
BRANCH   9  11
ATOM     11  CA  ALA A   9      16.997  21.834  20.195  0.00  0.00    +0.149 C 
ATOM     12  CB  ALA A   9      17.060  23.348  20.038  0.00  0.00    +0.031 C 
BRANCH  11  13
ATOM     13  C   ALA A   9      16.622  21.474  21.628  0.00  0.00    +0.241 C 
ATOM     14  O   ALA A   9      17.494  21.302  22.476  0.00  0.00    -0.273 OA
ATOM     15  N   LEU A  10      15.324  21.367  21.892  0.00  0.00    -0.297 N 
ATOM     16  H   LEU A  10      14.636  21.537  21.131  0.00  0.00    +0.150 HD
BRANCH  15  17
ATOM     17  CA  LEU A  10      14.839  21.017  23.223  0.00  0.00    +0.149 C 
BRANCH  17  18
ATOM     18  C   LEU A  10      15.117  19.533  23.523  0.00  0.00    +0.241 C 
ATOM     19  O   LEU A  10      15.467  19.188  24.655  0.00  0.00    -0.273 OA
ATOM     20  N   ASP A  11      14.984  18.666  22.515  0.00  0.00    -0.297 N 
ATOM     21  H   ASP A  11      14.674  19.007  21.583  0.00  0.00    +0.150 HD
BRANCH  20  22
ATOM     22  CA  ASP A  11      15.269  17.240  22.706  0.00  0.00    +0.160 C 
BRANCH  22  23
ATOM     23  C   ASP A  11      16.736  17.088  23.107  0.00  0.00    +0.241 C 
ATOM     24  O   ASP A  11      17.082  16.279  23.969  0.00  0.00    -0.273 OA
ATOM     25  N   LYS A  12      17.594  17.872  22.458  0.00  0.00    -0.297 N 
ATOM     26  H   LYS A  12      17.228  18.541  21.751  0.00  0.00    +0.150 HD
BRANCH  25  27
ATOM     27  CA  LYS A  12      19.033  17.825  22.706  0.00  0.00    +0.149 C 
BRANCH  27  28
ATOM     28  C   LYS A  12      19.399  18.135  24.147  0.00  0.00    +0.241 C 
ATOM     29  O   LYS A  12      20.068  17.332  24.805  0.00  0.00    -0.273 OA
ATOM     30  N   ILE A  13      18.982  19.299  24.638  0.00  0.00    -0.298 N 
ATOM     31  H   ILE A  13      18.432  19.949  24.041  0.00  0.00    +0.150 HD
BRANCH  30  32
ATOM     32  CA  ILE A  13      19.297  19.661  26.015  0.00  0.00    +0.137 C 
BRANCH  32  33
ATOM     33  CB  ILE A  13      18.820  21.100  26.368  0.00  0.00    +0.026 C 
ATOM     34  CG2 ILE A  13      17.311  21.199  26.278  0.00  0.00    +0.002 C 
BRANCH  33  35
ATOM     35  CG1 ILE A  13      19.282  21.473  27.782  0.00  0.00    +0.002 C 
ATOM     36  CD1 ILE A  13      20.793  21.480  27.954  0.00  0.00    +0.000 C 
ENDBRANCH  33  35
ENDBRANCH  32  33
BRANCH  32  37
ATOM     37  C   ILE A  13      18.652  18.660  26.964  0.00  0.00    +0.227 C 
ATOM     38  O   ILE A  13      19.238  18.295  27.979  0.00  0.00    -0.286 OA
ENDBRANCH  32  37
ENDBRANCH  30  32
ENDBRANCH  27  28
BRANCH  27  39
ATOM     39  CB  LYS A  12      19.768  18.798  21.782  0.00  0.00    +0.029 C 
BRANCH  39  40
ATOM     40  CG  LYS A  12      21.266  18.860  22.039  0.00  0.00    +0.000 C 
BRANCH  40  41
ATOM     41  CD  LYS A  12      22.039  17.943  21.113  0.00  0.00    -0.024 C 
BRANCH  41  42
ATOM     42  CE  LYS A  12      22.080  18.497  19.696  0.00  0.00    -0.086 C 
BRANCH  42  43
ATOM     43  NZ  LYS A  12      20.757  18.485  19.015  0.00  0.00    +0.380 N 
ATOM     44  HZ1 LYS A  12      20.084  19.064  19.557  0.00  0.00    -0.089 HD
ATOM     45  HZ2 LYS A  12      20.407  17.507  18.958  0.00  0.00    -0.089 HD
ATOM     46  HZ3 LYS A  12      20.858  18.875  18.056  0.00  0.00    -0.089 HD
ENDBRANCH  42  43
ENDBRANCH  41  42
ENDBRANCH  40  41
ENDBRANCH  39  40
ENDBRANCH  27  39
ENDBRANCH  25  27
ENDBRANCH  22  23
BRANCH  22  47
ATOM     47  CB  ASP A  11      15.077  16.431  21.412  0.00  0.00    +0.143 C 
BRANCH  47  48
ATOM     48  CG  ASP A  11      13.633  16.299  20.992  0.00  0.00    +0.367 C 
ATOM     49  OD2 ASP A  11      12.744  16.273  21.870  0.00  0.00    -0.246 OA
ATOM     50  OD1 ASP A  11      13.399  16.192  19.763  0.00  0.00    -0.246 OA
ENDBRANCH  47  48
ENDBRANCH  22  47
ENDBRANCH  20  22
ENDBRANCH  17  18
BRANCH  17  51
ATOM     51  CB  LEU A  10      13.343  21.341  23.346  0.00  0.00    +0.029 C 
BRANCH  51  52
ATOM     52  CG  LEU A  10      13.043  22.849  23.371  0.00  0.00    +0.002 C 
ATOM     53  CD2 LEU A  10      13.525  23.416  24.700  0.00  0.00    +0.000 C 
ATOM     54  CD1 LEU A  10      11.556  23.113  23.147  0.00  0.00    +0.000 C 
ENDBRANCH  51  52
ENDBRANCH  17  51
ENDBRANCH  15  17
ENDBRANCH  11  13
ENDBRANCH   9  11
ENDBRANCH   6   7
BRANCH   6  55
ATOM     55  CB  ASP A   8      15.409  19.475  16.744  0.00  0.00    +0.143 C 
BRANCH  55  56
ATOM     56  CG  ASP A   8      14.506  18.813  15.729  0.00  0.00    +0.367 C 
ATOM     57  OD2 ASP A   8      13.501  18.201  16.133  0.00  0.00    -0.246 OA
ATOM     58  OD1 ASP A   8      14.814  18.896  14.521  0.00  0.00    -0.246 OA
ENDBRANCH  55  56
ENDBRANCH   6  55
ENDBRANCH   4   6
ENDBRANCH   1   2
BRANCH   1  61
ATOM     59  C   SER A   6      12.905  23.269  19.281  0.00  0.00    +0.243 C 
ATOM     60  O   SER A   6      13.596  22.968  20.254  0.00  0.00    -0.273 OA
ATOM     61  N   SER A   7      11.944  22.483  18.804  0.00  0.00    -0.295 N 
ATOM     62  H   SER A   7      11.382  22.815  17.994  0.00  0.00    +0.150 HD
BRANCH  59  63
ATOM     63  CA  SER A   6      13.105  24.609  18.561  0.00  0.00    +0.178 C 
BRANCH  63  66
ATOM     64  C   ASN A   5      14.073  23.621  16.569  0.00  0.00    +0.241 C 
ATOM     65  O   ASN A   5      14.905  23.005  17.243  0.00  0.00    -0.273 OA
ATOM     66  N   SER A   6      13.163  24.423  17.114  0.00  0.00    -0.295 N 
ATOM     67  H   SER A   6      12.486  24.923  16.503  0.00  0.00    +0.150 HD
BRANCH  64  68
ATOM     68  CA  ASN A   5      14.039  23.482  15.046  0.00  0.00    +0.158 C 
BRANCH  68  71
ATOM     69  C   SER A   4      11.931  22.271  15.050  0.00  0.00    +0.243 C 
ATOM     70  O   SER A   4      12.364  21.428  15.834  0.00  0.00    -0.273 OA
ATOM     71  N   ASN A   5      12.659  23.294  14.610  0.00  0.00    -0.297 N 
ATOM     72  H   ASN A   5      12.237  23.972  13.943  0.00  0.00    +0.150 HD
BRANCH  69  73
ATOM     73  CA  SER A   4      10.502  22.195  14.532  0.00  0.00    +0.178 C 
BRANCH  73  76
ATOM     74  C   ILE A   3       9.685  24.084  15.829  0.00  0.00    +0.241 C 
ATOM     75  O   ILE A   3       9.992  23.545  16.893  0.00  0.00    -0.273 OA
ATOM     76  N   SER A   4       9.887  23.512  14.648  0.00  0.00    -0.295 N 
ATOM     77  H   SER A   4       9.600  24.016  13.785  0.00  0.00    +0.150 HD
BRANCH  74  78
ATOM     78  CA  ILE A   3       9.056  25.474  15.801  0.00  0.00    +0.149 C 
BRANCH  78  81
ATOM     79  C   LEU A   2      10.801  26.520  14.485  0.00  0.00    +0.241 C 
ATOM     80  O   LEU A   2      11.625  26.292  15.366  0.00  0.00    -0.273 OA
ATOM     81  N   ILE A   3       9.524  26.171  14.603  0.00  0.00    -0.297 N 
ATOM     82  H   ILE A   3       8.854  26.395  13.840  0.00  0.00    +0.150 HD
BRANCH  79  83
ATOM     83  CA  LEU A   2      11.214  27.229  13.193  0.00  0.00    +0.149 C 
BRANCH  83  85
ATOM     84  C   GLU A   1      10.875  25.480  11.563  0.00  0.00    +0.238 C 
ATOM     85  N   LEU A   2      10.508  26.667  12.044  0.00  0.00    -0.297 N 
ATOM     86  H   LEU A   2       9.724  27.190  11.604  0.00  0.00    +0.150 HD
ATOM     87  O   GLU A   1      11.814  24.841  12.038  0.00  0.00    -0.274 OA
BRANCH  84  88
ATOM     88  CA  GLU A   1      10.104  24.934  10.367  0.00  0.00    +0.145 C 
BRANCH  88  89
ATOM     89  N   GLU A   1       8.668  25.182  10.436  0.00  0.00    -0.238 NA
ATOM     90  H   GLU A   1       8.226  25.801   9.726  0.00  0.00    +0.142 HD
ENDBRANCH  88  89
BRANCH  88  91
ATOM     91  CB  GLU A   1      10.683  25.528   9.075  0.00  0.00    +0.038 C 
BRANCH  91  92
ATOM     92  CG  GLU A   1      10.163  24.885   7.806  0.00  0.00    +0.116 C 
BRANCH  92  93
ATOM     93  CD  GLU A   1      10.220  23.372   7.854  0.00  0.00    +0.365 C 
ATOM     94  OE2 GLU A   1      11.240  22.829   8.322  0.00  0.00    -0.246 OA
ATOM     95  OE1 GLU A   1       9.246  22.724   7.416  0.00  0.00    -0.246 OA
ENDBRANCH  92  93
ENDBRANCH  91  92
ENDBRANCH  88  91
ENDBRANCH  84  88
ENDBRANCH  83  85
BRANCH  83  96
ATOM     96  CB  LEU A   2      10.950  28.739  13.315  0.00  0.00    +0.029 C 
BRANCH  96  97
ATOM     97  CG  LEU A   2      11.480  29.614  12.171  0.00  0.00    +0.002 C 
ATOM     98  CD2 LEU A   2      11.154  31.070  12.434  0.00  0.00    +0.000 C 
ATOM     99  CD1 LEU A   2      12.975  29.429  12.035  0.00  0.00    +0.000 C 
ENDBRANCH  96  97
ENDBRANCH  83  96
ENDBRANCH  79  83
ENDBRANCH  78  81
BRANCH  78 100
ATOM    100  CB  ILE A   3       7.521  25.359  15.810  0.00  0.00    +0.027 C 
ATOM    101  CG2 ILE A   3       7.070  24.347  16.858  0.00  0.00    +0.002 C 
BRANCH 100 102
ATOM    102  CG1 ILE A   3       6.906  26.731  16.092  0.00  0.00    +0.002 C 
ATOM    103  CD1 ILE A   3       5.385  26.747  16.032  0.00  0.00    +0.000 C 
ENDBRANCH 100 102
ENDBRANCH  78 100
ENDBRANCH  74  78
ENDBRANCH  73  76
BRANCH  73 104
ATOM    104  CB  SER A   4      10.508  21.738  13.075  0.00  0.00    +0.166 C 
BRANCH 104 105
ATOM    105  OG  SER A   4       9.198  21.767  12.538  0.00  0.00    -0.380 OA
ATOM    106  H   SER A   4       9.223  21.468  11.595  0.00  0.00    +0.211 HD
ENDBRANCH 104 105
ENDBRANCH  73 104
ENDBRANCH  69  73
ENDBRANCH  68  71
BRANCH  68 107
ATOM    107  CB  ASN A   5      14.653  24.726  14.375  0.00  0.00    +0.114 C 
BRANCH 107 108
ATOM    108  CG  ASN A   5      15.071  24.475  12.930  0.00  0.00    +0.222 C 
ATOM    109  OD1 ASN A   5      14.978  23.357  12.431  0.00  0.00    -0.275 OA
ATOM    110  ND2 ASN A   5      15.546  25.520  12.257  0.00  0.00    -0.329 N 
ATOM    111 HD21 ASN A   5      15.608  26.450  12.717  0.00  0.00    +0.145 HD
ATOM    112 HD22 ASN A   5      15.855  25.406  11.271  0.00  0.00    +0.145 HD
ENDBRANCH 107 108
ENDBRANCH  68 107
ENDBRANCH  64  68
ENDBRANCH  63  66
BRANCH  63 113
ATOM    113  CB  SER A   6      11.968  25.556  18.930  0.00  0.00    +0.166 C 
BRANCH 113 114
ATOM    114  OG  SER A   6      12.291  26.891  18.584  0.00  0.00    -0.380 OA
ATOM    115  H   SER A   6      13.108  27.168  19.070  0.00  0.00    +0.211 HD
ENDBRANCH 113 114
ENDBRANCH  63 113
ENDBRANCH  59  63
ENDBRANCH   1  61
BRANCH   1 116
ATOM    116  CB  SER A   7      10.526  20.489  18.566  0.00  0.00    +0.166 C 
BRANCH 116 117
ATOM    117  OG  SER A   7      10.163  19.233  19.115  0.00  0.00    -0.380 OA
ATOM    118  H   SER A   7      10.951  18.634  19.116  0.00  0.00    +0.211 HD
ENDBRANCH 116 117
ENDBRANCH   1 116
TORSDOF 54
REMARK  Name = ../refined-set-2016/2qg0/2qg0_pocket.pdb
REMARK  229 active torsions:
REMARK  status: ('A' for Active; 'I' for Inactive)
REMARK    1  A    between atoms: _1  and  _3
REMARK    2  A    between atoms: _3  and  _4
REMARK    3  A    between atoms: _3  and  _6
REMARK    4  A    between atoms: _6  and  _7
REMARK    5  A    between atoms: _10  and  _12
REMARK    6  A    between atoms: _12  and  _13
REMARK    7  A    between atoms: _12  and  _15
REMARK    8  A    between atoms: _15  and  _16
REMARK    9  A    between atoms: _19  and  _21
REMARK   10  A    between atoms: _21  and  _22
REMARK   11  A    between atoms: _21  and  _24
REMARK   12  A    between atoms: _24  and  _25
REMARK   13  A    between atoms: _25  and  _26
REMARK   14  A    between atoms: _29  and  _31
REMARK   15  A    between atoms: _31  and  _32
REMARK   16  A    between atoms: _31  and  _34
REMARK   17  A    between atoms: _34  and  _35
REMARK   18  A    between atoms: _38  and  _40
REMARK   19  A    between atoms: _40  and  _41
REMARK   20  A    between atoms: _40  and  _43
REMARK   21  A    between atoms: _43  and  _44
REMARK   22  A    between atoms: _47  and  _49
REMARK   23  A    between atoms: _49  and  _50
REMARK   24  A    between atoms: _49  and  _52
REMARK   25  A    between atoms: _52  and  _53
REMARK   26  A    between atoms: _55  and  _57
REMARK   27  A    between atoms: _57  and  _58
REMARK   28  A    between atoms: _57  and  _60
REMARK   29  A    between atoms: _60  and  _61
REMARK   30  A    between atoms: _66  and  _68
REMARK   31  A    between atoms: _68  and  _69
REMARK   32  A    between atoms: _68  and  _71
REMARK   33  A    between atoms: _71  and  _72
REMARK   34  A    between atoms: _74  and  _76
REMARK   35  A    between atoms: _76  and  _77
REMARK   36  A    between atoms: _76  and  _79
REMARK   37  A    between atoms: _79  and  _80
REMARK   38  A    between atoms: _82  and  _84
REMARK   39  A    between atoms: _84  and  _85
REMARK   40  A    between atoms: _84  and  _87
REMARK   41  A    between atoms: _87  and  _88
REMARK   42  A    between atoms: _91  and  _93
REMARK   43  A    between atoms: _93  and  _94
REMARK   44  A    between atoms: _97  and  _99
REMARK   45  A    between atoms: _99  and  _100
REMARK   46  A    between atoms: _99  and  _102
REMARK   47  A    between atoms: _102  and  _103
REMARK   48  A    between atoms: _106  and  _108
REMARK   49  A    between atoms: _108  and  _109
REMARK   50  A    between atoms: _108  and  _111
REMARK   51  A    between atoms: _111  and  _112
REMARK   52  A    between atoms: _115  and  _117
REMARK   53  A    between atoms: _117  and  _118
REMARK   54  A    between atoms: _117  and  _120
REMARK   55  A    between atoms: _120  and  _121
REMARK   56  A    between atoms: _121  and  _122
REMARK   57  A    between atoms: _122  and  _123
REMARK   58  A    between atoms: _123  and  _124
REMARK   59  A    between atoms: _128  and  _130
REMARK   60  A    between atoms: _130  and  _131
REMARK   61  A    between atoms: _130  and  _133
REMARK   62  A    between atoms: _133  and  _134
REMARK   63  A    between atoms: _137  and  _139
REMARK   64  A    between atoms: _139  and  _140
REMARK   65  A    between atoms: _139  and  _142
REMARK   66  A    between atoms: _142  and  _143
REMARK   67  A    between atoms: _143  and  _144
REMARK   68  A    between atoms: _147  and  _149
REMARK   69  A    between atoms: _149  and  _150
REMARK   70  A    between atoms: _149  and  _152
REMARK   71  A    between atoms: _152  and  _153
REMARK   72  A    between atoms: _156  and  _158
REMARK   73  A    between atoms: _158  and  _159
REMARK   74  A    between atoms: _158  and  _161
REMARK   75  A    between atoms: _161  and  _162
REMARK   76  A    between atoms: _165  and  _167
REMARK   77  A    between atoms: _167  and  _168
REMARK   78  A    between atoms: _167  and  _170
REMARK   79  A    between atoms: _173  and  _175
REMARK   80  A    between atoms: _175  and  _176
REMARK   81  A    between atoms: _175  and  _178
REMARK   82  A    between atoms: _178  and  _179
REMARK   83  A    between atoms: _182  and  _184
REMARK   84  A    between atoms: _184  and  _185
REMARK   85  A    between atoms: _184  and  _187
REMARK   86  A    between atoms: _187  and  _188
REMARK   87  A    between atoms: _191  and  _193
REMARK   88  A    between atoms: _193  and  _194
REMARK   89  A    between atoms: _196  and  _198
REMARK   90  A    between atoms: _198  and  _199
REMARK   91  A    between atoms: _198  and  _201
REMARK   92  A    between atoms: _201  and  _202
REMARK   93  A    between atoms: _205  and  _207
REMARK   94  A    between atoms: _207  and  _208
REMARK   95  A    between atoms: _210  and  _212
REMARK   96  A    between atoms: _212  and  _213
REMARK   97  A    between atoms: _212  and  _215
REMARK   98  A    between atoms: _215  and  _216
REMARK   99  A    between atoms: _216  and  _217
REMARK  100  A    between atoms: _219  and  _221
REMARK  101  A    between atoms: _221  and  _222
REMARK  102  A    between atoms: _221  and  _224
REMARK  103  A    between atoms: _224  and  _225
REMARK  104  A    between atoms: _228  and  _230
REMARK  105  A    between atoms: _230  and  _231
REMARK  106  A    between atoms: _230  and  _233
REMARK  107  A    between atoms: _233  and  _234
REMARK  108  A    between atoms: _237  and  _239
REMARK  109  A    between atoms: _239  and  _240
REMARK  110  A    between atoms: _239  and  _242
REMARK  111  A    between atoms: _242  and  _243
REMARK  112  A    between atoms: _246  and  _248
REMARK  113  A    between atoms: _248  and  _249
REMARK  114  A    between atoms: _248  and  _251
REMARK  115  A    between atoms: _251  and  _252
REMARK  116  A    between atoms: _257  and  _259
REMARK  117  A    between atoms: _259  and  _260
REMARK  118  A    between atoms: _259  and  _262
REMARK  119  A    between atoms: _262  and  _263
REMARK  120  A    between atoms: _268  and  _270
REMARK  121  A    between atoms: _270  and  _271
REMARK  122  A    between atoms: _270  and  _273
REMARK  123  A    between atoms: _273  and  _274
REMARK  124  A    between atoms: _277  and  _279
REMARK  125  A    between atoms: _279  and  _280
REMARK  126  A    between atoms: _282  and  _284
REMARK  127  A    between atoms: _284  and  _285
REMARK  128  A    between atoms: _284  and  _287
REMARK  129  A    between atoms: _287  and  _288
REMARK  130  A    between atoms: _291  and  _293
REMARK  131  A    between atoms: _293  and  _294
REMARK  132  A    between atoms: _293  and  _296
REMARK  133  A    between atoms: _296  and  _297
REMARK  134  A    between atoms: _300  and  _302
REMARK  135  A    between atoms: _302  and  _303
REMARK  136  A    between atoms: _306  and  _308
REMARK  137  A    between atoms: _308  and  _309
REMARK  138  A    between atoms: _308  and  _311
REMARK  139  A    between atoms: _311  and  _312
REMARK  140  A    between atoms: _312  and  _313
REMARK  141  A    between atoms: _313  and  _314
REMARK  142  A    between atoms: _314  and  _315
REMARK  143  A    between atoms: _319  and  _321
REMARK  144  A    between atoms: _321  and  _322
REMARK  145  A    between atoms: _321  and  _324
REMARK  146  A    between atoms: _324  and  _325
REMARK  147  A    between atoms: _327  and  _329
REMARK  148  A    between atoms: _329  and  _330
REMARK  149  A    between atoms: _332  and  _334
REMARK  150  A    between atoms: _334  and  _335
REMARK  151  A    between atoms: _334  and  _337
REMARK  152  A    between atoms: _337  and  _338
REMARK  153  A    between atoms: _341  and  _343
REMARK  154  A    between atoms: _343  and  _344
REMARK  155  A    between atoms: _343  and  _346
REMARK  156  A    between atoms: _346  and  _347
REMARK  157  A    between atoms: _350  and  _352
REMARK  158  A    between atoms: _352  and  _353
REMARK  159  A    between atoms: _355  and  _357
REMARK  160  A    between atoms: _357  and  _358
REMARK  161  A    between atoms: _357  and  _360
REMARK  162  A    between atoms: _360  and  _361
REMARK  163  A    between atoms: _367  and  _369
REMARK  164  A    between atoms: _369  and  _370
REMARK  165  A    between atoms: _372  and  _374
REMARK  166  A    between atoms: _374  and  _375
REMARK  167  A    between atoms: _374  and  _377
REMARK  168  A    between atoms: _380  and  _382
REMARK  169  A    between atoms: _382  and  _383
REMARK  170  A    between atoms: _385  and  _387
REMARK  171  A    between atoms: _387  and  _388
REMARK  172  A    between atoms: _387  and  _390
REMARK  173  A    between atoms: _390  and  _391
REMARK  174  A    between atoms: _397  and  _399
REMARK  175  A    between atoms: _399  and  _400
REMARK  176  A    between atoms: _399  and  _402
REMARK  177  A    between atoms: _402  and  _403
REMARK  178  A    between atoms: _408  and  _409
REMARK  179  A    between atoms: _411  and  _413
REMARK  180  A    between atoms: _413  and  _414
REMARK  181  A    between atoms: _413  and  _416
REMARK  182  A    between atoms: _416  and  _417
REMARK  183  A    between atoms: _419  and  _421
REMARK  184  A    between atoms: _421  and  _422
REMARK  185  A    between atoms: _425  and  _427
REMARK  186  A    between atoms: _427  and  _428
REMARK  187  A    between atoms: _427  and  _430
REMARK  188  A    between atoms: _433  and  _435
REMARK  189  A    between atoms: _435  and  _436
REMARK  190  A    between atoms: _435  and  _438
REMARK  191  A    between atoms: _438  and  _439
REMARK  192  A    between atoms: _442  and  _444
REMARK  193  A    between atoms: _444  and  _445
REMARK  194  A    between atoms: _444  and  _447
REMARK  195  A    between atoms: _447  and  _448
REMARK  196  A    between atoms: _451  and  _453
REMARK  197  A    between atoms: _453  and  _454
REMARK  198  A    between atoms: _453  and  _456
REMARK  199  A    between atoms: _456  and  _457
REMARK  200  A    between atoms: _457  and  _458
REMARK  201  A    between atoms: _458  and  _459
REMARK  202  A    between atoms: _459  and  _460
REMARK  203  A    between atoms: _464  and  _466
REMARK  204  A    between atoms: _466  and  _467
REMARK  205  A    between atoms: _466  and  _469
REMARK  206  A    between atoms: _469  and  _470
REMARK  207  A    between atoms: _475  and  _477
REMARK  208  A    between atoms: _477  and  _478
REMARK  209  A    between atoms: _480  and  _482
REMARK  210  A    between atoms: _482  and  _483
REMARK  211  A    between atoms: _482  and  _485
REMARK  212  A    between atoms: _485  and  _486
REMARK  213  A    between atoms: _489  and  _491
REMARK  214  A    between atoms: _491  and  _492
REMARK  215  A    between atoms: _491  and  _494
REMARK  216  A    between atoms: _494  and  _495
REMARK  217  A    between atoms: _495  and  _496
REMARK  218  A    between atoms: _496  and  _497
REMARK  219  A    between atoms: _497  and  _498
REMARK  220  A    between atoms: _502  and  _504
REMARK  221  A    between atoms: _504  and  _505
REMARK  222  A    between atoms: _504  and  _507
REMARK  223  A    between atoms: _510  and  _512
REMARK  224  A    between atoms: _512  and  _513
REMARK  225  A    between atoms: _512  and  _515
REMARK  226  A    between atoms: _515  and  _516
REMARK  227  A    between atoms: _516  and  _517
REMARK  228  A    between atoms: _517  and  _518
REMARK  229  A    between atoms: _518  and  _519
REMARK                            x       y       z     vdW  Elec       q    Type
REMARK                         _______ _______ _______ _____ _____    ______ ____
ROOT
ATOM      1  CA  GLU A   1      22.262  15.838  27.687  0.00  0.00    +0.134 C 
ENDROOT
BRANCH   1   2
ATOM      2  N   GLU A   1      21.003  15.606  26.990  0.00  0.00    -0.239 NA
ATOM      3  H   GLU A   1      20.653  16.301  26.300  0.00  0.00    +0.142 HD
ENDBRANCH   1   2
BRANCH   1   4
ATOM      4  C   GLU A   1      22.042  15.917  29.198  0.00  0.00    +0.224 C 
ATOM      5  O   GLU A   1      22.870  15.443  29.977  0.00  0.00    -0.287 OA
ENDBRANCH   1   4
BRANCH   1   6
ATOM      6  CB  GLU A   1      22.934  17.125  27.191  0.00  0.00    +0.037 C 
BRANCH   6   7
ATOM      7  CG  GLU A   1      23.396  17.076  25.741  0.00  0.00    +0.116 C 
BRANCH   7   8
ATOM      8  CD  GLU A   1      24.247  18.277  25.358  0.00  0.00    +0.365 C 
ATOM      9  OE2 GLU A   1      24.626  19.056  26.258  0.00  0.00    -0.246 OA
ATOM     10  OE1 GLU A   1      24.545  18.443  24.155  0.00  0.00    -0.246 OA
ENDBRANCH   7   8
ENDBRANCH   6   7
ENDBRANCH   1   6
TORSDOF 5
REMARK  Name = ../refined-set-2016/2qg0/2qg0_pocket.pdb
REMARK  229 active torsions:
REMARK  status: ('A' for Active; 'I' for Inactive)
REMARK    1  A    between atoms: _1  and  _3
REMARK    2  A    between atoms: _3  and  _4
REMARK    3  A    between atoms: _3  and  _6
REMARK    4  A    between atoms: _6  and  _7
REMARK    5  A    between atoms: _10  and  _12
REMARK    6  A    between atoms: _12  and  _13
REMARK    7  A    between atoms: _12  and  _15
REMARK    8  A    between atoms: _15  and  _16
REMARK    9  A    between atoms: _19  and  _21
REMARK   10  A    between atoms: _21  and  _22
REMARK   11  A    between atoms: _21  and  _24
REMARK   12  A    between atoms: _24  and  _25
REMARK   13  A    between atoms: _25  and  _26
REMARK   14  A    between atoms: _29  and  _31
REMARK   15  A    between atoms: _31  and  _32
REMARK   16  A    between atoms: _31  and  _34
REMARK   17  A    between atoms: _34  and  _35
REMARK   18  A    between atoms: _38  and  _40
REMARK   19  A    between atoms: _40  and  _41
REMARK   20  A    between atoms: _40  and  _43
REMARK   21  A    between atoms: _43  and  _44
REMARK   22  A    between atoms: _47  and  _49
REMARK   23  A    between atoms: _49  and  _50
REMARK   24  A    between atoms: _49  and  _52
REMARK   25  A    between atoms: _52  and  _53
REMARK   26  A    between atoms: _55  and  _57
REMARK   27  A    between atoms: _57  and  _58
REMARK   28  A    between atoms: _57  and  _60
REMARK   29  A    between atoms: _60  and  _61
REMARK   30  A    between atoms: _66  and  _68
REMARK   31  A    between atoms: _68  and  _69
REMARK   32  A    between atoms: _68  and  _71
REMARK   33  A    between atoms: _71  and  _72
REMARK   34  A    between atoms: _74  and  _76
REMARK   35  A    between atoms: _76  and  _77
REMARK   36  A    between atoms: _76  and  _79
REMARK   37  A    between atoms: _79  and  _80
REMARK   38  A    between atoms: _82  and  _84
REMARK   39  A    between atoms: _84  and  _85
REMARK   40  A    between atoms: _84  and  _87
REMARK   41  A    between atoms: _87  and  _88
REMARK   42  A    between atoms: _91  and  _93
REMARK   43  A    between atoms: _93  and  _94
REMARK   44  A    between atoms: _97  and  _99
REMARK   45  A    between atoms: _99  and  _100
REMARK   46  A    between atoms: _99  and  _102
REMARK   47  A    between atoms: _102  and  _103
REMARK   48  A    between atoms: _106  and  _108
REMARK   49  A    between atoms: _108  and  _109
REMARK   50  A    between atoms: _108  and  _111
REMARK   51  A    between atoms: _111  and  _112
REMARK   52  A    between atoms: _115  and  _117
REMARK   53  A    between atoms: _117  and  _118
REMARK   54  A    between atoms: _117  and  _120
REMARK   55  A    between atoms: _120  and  _121
REMARK   56  A    between atoms: _121  and  _122
REMARK   57  A    between atoms: _122  and  _123
REMARK   58  A    between atoms: _123  and  _124
REMARK   59  A    between atoms: _128  and  _130
REMARK   60  A    between atoms: _130  and  _131
REMARK   61  A    between atoms: _130  and  _133
REMARK   62  A    between atoms: _133  and  _134
REMARK   63  A    between atoms: _137  and  _139
REMARK   64  A    between atoms: _139  and  _140
REMARK   65  A    between atoms: _139  and  _142
REMARK   66  A    between atoms: _142  and  _143
REMARK   67  A    between atoms: _143  and  _144
REMARK   68  A    between atoms: _147  and  _149
REMARK   69  A    between atoms: _149  and  _150
REMARK   70  A    between atoms: _149  and  _152
REMARK   71  A    between atoms: _152  and  _153
REMARK   72  A    between atoms: _156  and  _158
REMARK   73  A    between atoms: _158  and  _159
REMARK   74  A    between atoms: _158  and  _161
REMARK   75  A    between atoms: _161  and  _162
REMARK   76  A    between atoms: _165  and  _167
REMARK   77  A    between atoms: _167  and  _168
REMARK   78  A    between atoms: _167  and  _170
REMARK   79  A    between atoms: _173  and  _175
REMARK   80  A    between atoms: _175  and  _176
REMARK   81  A    between atoms: _175  and  _178
REMARK   82  A    between atoms: _178  and  _179
REMARK   83  A    between atoms: _182  and  _184
REMARK   84  A    between atoms: _184  and  _185
REMARK   85  A    between atoms: _184  and  _187
REMARK   86  A    between atoms: _187  and  _188
REMARK   87  A    between atoms: _191  and  _193
REMARK   88  A    between atoms: _193  and  _194
REMARK   89  A    between atoms: _196  and  _198
REMARK   90  A    between atoms: _198  and  _199
REMARK   91  A    between atoms: _198  and  _201
REMARK   92  A    between atoms: _201  and  _202
REMARK   93  A    between atoms: _205  and  _207
REMARK   94  A    between atoms: _207  and  _208
REMARK   95  A    between atoms: _210  and  _212
REMARK   96  A    between atoms: _212  and  _213
REMARK   97  A    between atoms: _212  and  _215
REMARK   98  A    between atoms: _215  and  _216
REMARK   99  A    between atoms: _216  and  _217
REMARK  100  A    between atoms: _219  and  _221
REMARK  101  A    between atoms: _221  and  _222
REMARK  102  A    between atoms: _221  and  _224
REMARK  103  A    between atoms: _224  and  _225
REMARK  104  A    between atoms: _228  and  _230
REMARK  105  A    between atoms: _230  and  _231
REMARK  106  A    between atoms: _230  and  _233
REMARK  107  A    between atoms: _233  and  _234
REMARK  108  A    between atoms: _237  and  _239
REMARK  109  A    between atoms: _239  and  _240
REMARK  110  A    between atoms: _239  and  _242
REMARK  111  A    between atoms: _242  and  _243
REMARK  112  A    between atoms: _246  and  _248
REMARK  113  A    between atoms: _248  and  _249
REMARK  114  A    between atoms: _248  and  _251
REMARK  115  A    between atoms: _251  and  _252
REMARK  116  A    between atoms: _257  and  _259
REMARK  117  A    between atoms: _259  and  _260
REMARK  118  A    between atoms: _259  and  _262
REMARK  119  A    between atoms: _262  and  _263
REMARK  120  A    between atoms: _268  and  _270
REMARK  121  A    between atoms: _270  and  _271
REMARK  122  A    between atoms: _270  and  _273
REMARK  123  A    between atoms: _273  and  _274
REMARK  124  A    between atoms: _277  and  _279
REMARK  125  A    between atoms: _279  and  _280
REMARK  126  A    between atoms: _282  and  _284
REMARK  127  A    between atoms: _284  and  _285
REMARK  128  A    between atoms: _284  and  _287
REMARK  129  A    between atoms: _287  and  _288
REMARK  130  A    between atoms: _291  and  _293
REMARK  131  A    between atoms: _293  and  _294
REMARK  132  A    between atoms: _293  and  _296
REMARK  133  A    between atoms: _296  and  _297
REMARK  134  A    between atoms: _300  and  _302
REMARK  135  A    between atoms: _302  and  _303
REMARK  136  A    between atoms: _306  and  _308
REMARK  137  A    between atoms: _308  and  _309
REMARK  138  A    between atoms: _308  and  _311
REMARK  139  A    between atoms: _311  and  _312
REMARK  140  A    between atoms: _312  and  _313
REMARK  141  A    between atoms: _313  and  _314
REMARK  142  A    between atoms: _314  and  _315
REMARK  143  A    between atoms: _319  and  _321
REMARK  144  A    between atoms: _321  and  _322
REMARK  145  A    between atoms: _321  and  _324
REMARK  146  A    between atoms: _324  and  _325
REMARK  147  A    between atoms: _327  and  _329
REMARK  148  A    between atoms: _329  and  _330
REMARK  149  A    between atoms: _332  and  _334
REMARK  150  A    between atoms: _334  and  _335
REMARK  151  A    between atoms: _334  and  _337
REMARK  152  A    between atoms: _337  and  _338
REMARK  153  A    between atoms: _341  and  _343
REMARK  154  A    between atoms: _343  and  _344
REMARK  155  A    between atoms: _343  and  _346
REMARK  156  A    between atoms: _346  and  _347
REMARK  157  A    between atoms: _350  and  _352
REMARK  158  A    between atoms: _352  and  _353
REMARK  159  A    between atoms: _355  and  _357
REMARK  160  A    between atoms: _357  and  _358
REMARK  161  A    between atoms: _357  and  _360
REMARK  162  A    between atoms: _360  and  _361
REMARK  163  A    between atoms: _367  and  _369
REMARK  164  A    between atoms: _369  and  _370
REMARK  165  A    between atoms: _372  and  _374
REMARK  166  A    between atoms: _374  and  _375
REMARK  167  A    between atoms: _374  and  _377
REMARK  168  A    between atoms: _380  and  _382
REMARK  169  A    between atoms: _382  and  _383
REMARK  170  A    between atoms: _385  and  _387
REMARK  171  A    between atoms: _387  and  _388
REMARK  172  A    between atoms: _387  and  _390
REMARK  173  A    between atoms: _390  and  _391
REMARK  174  A    between atoms: _397  and  _399
REMARK  175  A    between atoms: _399  and  _400
REMARK  176  A    between atoms: _399  and  _402
REMARK  177  A    between atoms: _402  and  _403
REMARK  178  A    between atoms: _408  and  _409
REMARK  179  A    between atoms: _411  and  _413
REMARK  180  A    between atoms: _413  and  _414
REMARK  181  A    between atoms: _413  and  _416
REMARK  182  A    between atoms: _416  and  _417
REMARK  183  A    between atoms: _419  and  _421
REMARK  184  A    between atoms: _421  and  _422
REMARK  185  A    between atoms: _425  and  _427
REMARK  186  A    between atoms: _427  and  _428
REMARK  187  A    between atoms: _427  and  _430
REMARK  188  A    between atoms: _433  and  _435
REMARK  189  A    between atoms: _435  and  _436
REMARK  190  A    between atoms: _435  and  _438
REMARK  191  A    between atoms: _438  and  _439
REMARK  192  A    between atoms: _442  and  _444
REMARK  193  A    between atoms: _444  and  _445
REMARK  194  A    between atoms: _444  and  _447
REMARK  195  A    between atoms: _447  and  _448
REMARK  196  A    between atoms: _451  and  _453
REMARK  197  A    between atoms: _453  and  _454
REMARK  198  A    between atoms: _453  and  _456
REMARK  199  A    between atoms: _456  and  _457
REMARK  200  A    between atoms: _457  and  _458
REMARK  201  A    between atoms: _458  and  _459
REMARK  202  A    between atoms: _459  and  _460
REMARK  203  A    between atoms: _464  and  _466
REMARK  204  A    between atoms: _466  and  _467
REMARK  205  A    between atoms: _466  and  _469
REMARK  206  A    between atoms: _469  and  _470
REMARK  207  A    between atoms: _475  and  _477
REMARK  208  A    between atoms: _477  and  _478
REMARK  209  A    between atoms: _480  and  _482
REMARK  210  A    between atoms: _482  and  _483
REMARK  211  A    between atoms: _482  and  _485
REMARK  212  A    between atoms: _485  and  _486
REMARK  213  A    between atoms: _489  and  _491
REMARK  214  A    between atoms: _491  and  _492
REMARK  215  A    between atoms: _491  and  _494
REMARK  216  A    between atoms: _494  and  _495
REMARK  217  A    between atoms: _495  and  _496
REMARK  218  A    between atoms: _496  and  _497
REMARK  219  A    between atoms: _497  and  _498
REMARK  220  A    between atoms: _502  and  _504
REMARK  221  A    between atoms: _504  and  _505
REMARK  222  A    between atoms: _504  and  _507
REMARK  223  A    between atoms: _510  and  _512
REMARK  224  A    between atoms: _512  and  _513
REMARK  225  A    between atoms: _512  and  _515
REMARK  226  A    between atoms: _515  and  _516
REMARK  227  A    between atoms: _516  and  _517
REMARK  228  A    between atoms: _517  and  _518
REMARK  229  A    between atoms: _518  and  _519
REMARK                            x       y       z     vdW  Elec       q    Type
REMARK                         _______ _______ _______ _____ _____    ______ ____
ROOT
ATOM      1  CA  ILE A   1       8.505  27.343  23.078  0.00  0.00    +0.133 C 
ENDROOT
BRANCH   1   2
ATOM      2  N   ILE A   1       8.418  26.464  24.234  0.00  0.00    -0.239 NA
ATOM      3  H   ILE A   1       7.479  26.150  24.552  0.00  0.00    +0.142 HD
ENDBRANCH   1   2
BRANCH   1   4
ATOM      4  C   ILE A   1       7.494  28.476  23.213  0.00  0.00    +0.224 C 
ATOM      5  O   ILE A   1       6.317  28.242  23.492  0.00  0.00    -0.287 OA
ENDBRANCH   1   4
BRANCH   1   6
ATOM      6  CB  ILE A   1       8.199  26.579  21.782  0.00  0.00    +0.023 C 
ATOM      7  CG2 ILE A   1       8.247  27.535  20.596  0.00  0.00    +0.002 C 
BRANCH   6   8
ATOM      8  CG1 ILE A   1       9.198  25.432  21.603  0.00  0.00    +0.002 C 
ATOM      9  CD1 ILE A   1       8.921  24.589  20.386  0.00  0.00    +0.000 C 
ENDBRANCH   6   8
ENDBRANCH   1   6
TORSDOF 4
REMARK  Name = ../refined-set-2016/2qg0/2qg0_pocket.pdb
REMARK  229 active torsions:
REMARK  status: ('A' for Active; 'I' for Inactive)
REMARK    1  A    between atoms: _1  and  _3
REMARK    2  A    between atoms: _3  and  _4
REMARK    3  A    between atoms: _3  and  _6
REMARK    4  A    between atoms: _6  and  _7
REMARK    5  A    between atoms: _10  and  _12
REMARK    6  A    between atoms: _12  and  _13
REMARK    7  A    between atoms: _12  and  _15
REMARK    8  A    between atoms: _15  and  _16
REMARK    9  A    between atoms: _19  and  _21
REMARK   10  A    between atoms: _21  and  _22
REMARK   11  A    between atoms: _21  and  _24
REMARK   12  A    between atoms: _24  and  _25
REMARK   13  A    between atoms: _25  and  _26
REMARK   14  A    between atoms: _29  and  _31
REMARK   15  A    between atoms: _31  and  _32
REMARK   16  A    between atoms: _31  and  _34
REMARK   17  A    between atoms: _34  and  _35
REMARK   18  A    between atoms: _38  and  _40
REMARK   19  A    between atoms: _40  and  _41
REMARK   20  A    between atoms: _40  and  _43
REMARK   21  A    between atoms: _43  and  _44
REMARK   22  A    between atoms: _47  and  _49
REMARK   23  A    between atoms: _49  and  _50
REMARK   24  A    between atoms: _49  and  _52
REMARK   25  A    between atoms: _52  and  _53
REMARK   26  A    between atoms: _55  and  _57
REMARK   27  A    between atoms: _57  and  _58
REMARK   28  A    between atoms: _57  and  _60
REMARK   29  A    between atoms: _60  and  _61
REMARK   30  A    between atoms: _66  and  _68
REMARK   31  A    between atoms: _68  and  _69
REMARK   32  A    between atoms: _68  and  _71
REMARK   33  A    between atoms: _71  and  _72
REMARK   34  A    between atoms: _74  and  _76
REMARK   35  A    between atoms: _76  and  _77
REMARK   36  A    between atoms: _76  and  _79
REMARK   37  A    between atoms: _79  and  _80
REMARK   38  A    between atoms: _82  and  _84
REMARK   39  A    between atoms: _84  and  _85
REMARK   40  A    between atoms: _84  and  _87
REMARK   41  A    between atoms: _87  and  _88
REMARK   42  A    between atoms: _91  and  _93
REMARK   43  A    between atoms: _93  and  _94
REMARK   44  A    between atoms: _97  and  _99
REMARK   45  A    between atoms: _99  and  _100
REMARK   46  A    between atoms: _99  and  _102
REMARK   47  A    between atoms: _102  and  _103
REMARK   48  A    between atoms: _106  and  _108
REMARK   49  A    between atoms: _108  and  _109
REMARK   50  A    between atoms: _108  and  _111
REMARK   51  A    between atoms: _111  and  _112
REMARK   52  A    between atoms: _115  and  _117
REMARK   53  A    between atoms: _117  and  _118
REMARK   54  A    between atoms: _117  and  _120
REMARK   55  A    between atoms: _120  and  _121
REMARK   56  A    between atoms: _121  and  _122
REMARK   57  A    between atoms: _122  and  _123
REMARK   58  A    between atoms: _123  and  _124
REMARK   59  A    between atoms: _128  and  _130
REMARK   60  A    between atoms: _130  and  _131
REMARK   61  A    between atoms: _130  and  _133
REMARK   62  A    between atoms: _133  and  _134
REMARK   63  A    between atoms: _137  and  _139
REMARK   64  A    between atoms: _139  and  _140
REMARK   65  A    between atoms: _139  and  _142
REMARK   66  A    between atoms: _142  and  _143
REMARK   67  A    between atoms: _143  and  _144
REMARK   68  A    between atoms: _147  and  _149
REMARK   69  A    between atoms: _149  and  _150
REMARK   70  A    between atoms: _149  and  _152
REMARK   71  A    between atoms: _152  and  _153
REMARK   72  A    between atoms: _156  and  _158
REMARK   73  A    between atoms: _158  and  _159
REMARK   74  A    between atoms: _158  and  _161
REMARK   75  A    between atoms: _161  and  _162
REMARK   76  A    between atoms: _165  and  _167
REMARK   77  A    between atoms: _167  and  _168
REMARK   78  A    between atoms: _167  and  _170
REMARK   79  A    between atoms: _173  and  _175
REMARK   80  A    between atoms: _175  and  _176
REMARK   81  A    between atoms: _175  and  _178
REMARK   82  A    between atoms: _178  and  _179
REMARK   83  A    between atoms: _182  and  _184
REMARK   84  A    between atoms: _184  and  _185
REMARK   85  A    between atoms: _184  and  _187
REMARK   86  A    between atoms: _187  and  _188
REMARK   87  A    between atoms: _191  and  _193
REMARK   88  A    between atoms: _193  and  _194
REMARK   89  A    between atoms: _196  and  _198
REMARK   90  A    between atoms: _198  and  _199
REMARK   91  A    between atoms: _198  and  _201
REMARK   92  A    between atoms: _201  and  _202
REMARK   93  A    between atoms: _205  and  _207
REMARK   94  A    between atoms: _207  and  _208
REMARK   95  A    between atoms: _210  and  _212
REMARK   96  A    between atoms: _212  and  _213
REMARK   97  A    between atoms: _212  and  _215
REMARK   98  A    between atoms: _215  and  _216
REMARK   99  A    between atoms: _216  and  _217
REMARK  100  A    between atoms: _219  and  _221
REMARK  101  A    between atoms: _221  and  _222
REMARK  102  A    between atoms: _221  and  _224
REMARK  103  A    between atoms: _224  and  _225
REMARK  104  A    between atoms: _228  and  _230
REMARK  105  A    between atoms: _230  and  _231
REMARK  106  A    between atoms: _230  and  _233
REMARK  107  A    between atoms: _233  and  _234
REMARK  108  A    between atoms: _237  and  _239
REMARK  109  A    between atoms: _239  and  _240
REMARK  110  A    between atoms: _239  and  _242
REMARK  111  A    between atoms: _242  and  _243
REMARK  112  A    between atoms: _246  and  _248
REMARK  113  A    between atoms: _248  and  _249
REMARK  114  A    between atoms: _248  and  _251
REMARK  115  A    between atoms: _251  and  _252
REMARK  116  A    between atoms: _257  and  _259
REMARK  117  A    between atoms: _259  and  _260
REMARK  118  A    between atoms: _259  and  _262
REMARK  119  A    between atoms: _262  and  _263
REMARK  120  A    between atoms: _268  and  _270
REMARK  121  A    between atoms: _270  and  _271
REMARK  122  A    between atoms: _270  and  _273
REMARK  123  A    between atoms: _273  and  _274
REMARK  124  A    between atoms: _277  and  _279
REMARK  125  A    between atoms: _279  and  _280
REMARK  126  A    between atoms: _282  and  _284
REMARK  127  A    between atoms: _284  and  _285
REMARK  128  A    between atoms: _284  and  _287
REMARK  129  A    between atoms: _287  and  _288
REMARK  130  A    between atoms: _291  and  _293
REMARK  131  A    between atoms: _293  and  _294
REMARK  132  A    between atoms: _293  and  _296
REMARK  133  A    between atoms: _296  and  _297
REMARK  134  A    between atoms: _300  and  _302
REMARK  135  A    between atoms: _302  and  _303
REMARK  136  A    between atoms: _306  and  _308
REMARK  137  A    between atoms: _308  and  _309
REMARK  138  A    between atoms: _308  and  _311
REMARK  139  A    between atoms: _311  and  _312
REMARK  140  A    between atoms: _312  and  _313
REMARK  141  A    between atoms: _313  and  _314
REMARK  142  A    between atoms: _314  and  _315
REMARK  143  A    between atoms: _319  and  _321
REMARK  144  A    between atoms: _321  and  _322
REMARK  145  A    between atoms: _321  and  _324
REMARK  146  A    between atoms: _324  and  _325
REMARK  147  A    between atoms: _327  and  _329
REMARK  148  A    between atoms: _329  and  _330
REMARK  149  A    between atoms: _332  and  _334
REMARK  150  A    between atoms: _334  and  _335
REMARK  151  A    between atoms: _334  and  _337
REMARK  152  A    between atoms: _337  and  _338
REMARK  153  A    between atoms: _341  and  _343
REMARK  154  A    between atoms: _343  and  _344
REMARK  155  A    between atoms: _343  and  _346
REMARK  156  A    between atoms: _346  and  _347
REMARK  157  A    between atoms: _350  and  _352
REMARK  158  A    between atoms: _352  and  _353
REMARK  159  A    between atoms: _355  and  _357
REMARK  160  A    between atoms: _357  and  _358
REMARK  161  A    between atoms: _357  and  _360
REMARK  162  A    between atoms: _360  and  _361
REMARK  163  A    between atoms: _367  and  _369
REMARK  164  A    between atoms: _369  and  _370
REMARK  165  A    between atoms: _372  and  _374
REMARK  166  A    between atoms: _374  and  _375
REMARK  167  A    between atoms: _374  and  _377
REMARK  168  A    between atoms: _380  and  _382
REMARK  169  A    between atoms: _382  and  _383
REMARK  170  A    between atoms: _385  and  _387
REMARK  171  A    between atoms: _387  and  _388
REMARK  172  A    between atoms: _387  and  _390
REMARK  173  A    between atoms: _390  and  _391
REMARK  174  A    between atoms: _397  and  _399
REMARK  175  A    between atoms: _399  and  _400
REMARK  176  A    between atoms: _399  and  _402
REMARK  177  A    between atoms: _402  and  _403
REMARK  178  A    between atoms: _408  and  _409
REMARK  179  A    between atoms: _411  and  _413
REMARK  180  A    between atoms: _413  and  _414
REMARK  181  A    between atoms: _413  and  _416
REMARK  182  A    between atoms: _416  and  _417
REMARK  183  A    between atoms: _419  and  _421
REMARK  184  A    between atoms: _421  and  _422
REMARK  185  A    between atoms: _425  and  _427
REMARK  186  A    between atoms: _427  and  _428
REMARK  187  A    between atoms: _427  and  _430
REMARK  188  A    between atoms: _433  and  _435
REMARK  189  A    between atoms: _435  and  _436
REMARK  190  A    between atoms: _435  and  _438
REMARK  191  A    between atoms: _438  and  _439
REMARK  192  A    between atoms: _442  and  _444
REMARK  193  A    between atoms: _444  and  _445
REMARK  194  A    between atoms: _444  and  _447
REMARK  195  A    between atoms: _447  and  _448
REMARK  196  A    between atoms: _451  and  _453
REMARK  197  A    between atoms: _453  and  _454
REMARK  198  A    between atoms: _453  and  _456
REMARK  199  A    between atoms: _456  and  _457
REMARK  200  A    between atoms: _457  and  _458
REMARK  201  A    between atoms: _458  and  _459
REMARK  202  A    between atoms: _459  and  _460
REMARK  203  A    between atoms: _464  and  _466
REMARK  204  A    between atoms: _466  and  _467
REMARK  205  A    between atoms: _466  and  _469
REMARK  206  A    between atoms: _469  and  _470
REMARK  207  A    between atoms: _475  and  _477
REMARK  208  A    between atoms: _477  and  _478
REMARK  209  A    between atoms: _480  and  _482
REMARK  210  A    between atoms: _482  and  _483
REMARK  211  A    between atoms: _482  and  _485
REMARK  212  A    between atoms: _485  and  _486
REMARK  213  A    between atoms: _489  and  _491
REMARK  214  A    between atoms: _491  and  _492
REMARK  215  A    between atoms: _491  and  _494
REMARK  216  A    between atoms: _494  and  _495
REMARK  217  A    between atoms: _495  and  _496
REMARK  218  A    between atoms: _496  and  _497
REMARK  219  A    between atoms: _497  and  _498
REMARK  220  A    between atoms: _502  and  _504
REMARK  221  A    between atoms: _504  and  _505
REMARK  222  A    between atoms: _504  and  _507
REMARK  223  A    between atoms: _510  and  _512
REMARK  224  A    between atoms: _512  and  _513
REMARK  225  A    between atoms: _512  and  _515
REMARK  226  A    between atoms: _515  and  _516
REMARK  227  A    between atoms: _516  and  _517
REMARK  228  A    between atoms: _517  and  _518
REMARK  229  A    between atoms: _518  and  _519
REMARK                            x       y       z     vdW  Elec       q    Type
REMARK                         _______ _______ _______ _____ _____    ______ ____
ROOT
ATOM      1  C   THR A   4      15.705  25.792  25.635  0.00  0.00    +0.243 C 
ATOM      2  O   THR A   4      16.031  25.010  26.533  0.00  0.00    -0.273 OA
ATOM      3  N   GLY A   5      15.970  25.588  24.348  0.00  0.00    -0.295 N 
ATOM      4  H   GLY A   5      15.644  26.281  23.645  0.00  0.00    +0.150 HD
ENDROOT
BRANCH   3   5
ATOM      5  CA  GLY A   5      16.703  24.420  23.906  0.00  0.00    +0.176 C 
BRANCH   5   6
ATOM      6  C   GLY A   5      18.194  24.553  24.175  0.00  0.00    +0.243 C 
ATOM      7  O   GLY A   5      18.627  25.443  24.901  0.00  0.00    -0.273 OA
ATOM      8  N   ILE A   6      18.978  23.674  23.561  0.00  0.00    -0.297 N 
ATOM      9  H   ILE A   6      18.542  22.974  22.928  0.00  0.00    +0.150 HD
BRANCH   8  10
ATOM     10  CA  ILE A   6      20.430  23.650  23.739  0.00  0.00    +0.149 C 
BRANCH  10  11
ATOM     11  C   ILE A   6      21.155  24.942  23.338  0.00  0.00    +0.241 C 
ATOM     12  O   ILE A   6      22.239  25.230  23.842  0.00  0.00    -0.273 OA
ATOM     13  N   GLY A   7      20.564  25.723  22.440  0.00  0.00    -0.295 N 
ATOM     14  H   GLY A   7      19.645  25.450  22.036  0.00  0.00    +0.150 HD
BRANCH  13  15
ATOM     15  CA  GLY A   7      21.203  26.956  22.024  0.00  0.00    +0.176 C 
BRANCH  15  16
ATOM     16  C   GLY A   7      22.405  26.725  21.120  0.00  0.00    +0.243 C 
ATOM     17  O   GLY A   7      22.742  25.585  20.805  0.00  0.00    -0.273 OA
ATOM     18  N   MET A   8      23.052  27.809  20.703  0.00  0.00    -0.297 N 
ATOM     19  H   MET A   8      22.722  28.747  21.008  0.00  0.00    +0.150 HD
BRANCH  18  20
ATOM     20  CA  MET A   8      24.218  27.712  19.825  0.00  0.00    +0.149 C 
BRANCH  20  21
ATOM     21  C   MET A   8      25.401  28.513  20.351  0.00  0.00    +0.241 C 
ATOM     22  O   MET A   8      25.235  29.629  20.834  0.00  0.00    -0.273 OA
ATOM     23  N   THR A   9      26.595  27.939  20.244  0.00  0.00    -0.296 N 
ATOM     24  H   THR A   9      26.665  26.976  19.857  0.00  0.00    +0.150 HD
BRANCH  23  25
ATOM     25  CA  THR A   9      27.808  28.633  20.659  0.00  0.00    +0.164 C 
BRANCH  25  26
ATOM     26  C   THR A   9      28.120  29.582  19.501  0.00  0.00    +0.229 C 
ATOM     27  O   THR A   9      27.452  29.537  18.471  0.00  0.00    -0.286 OA
ENDBRANCH  25  26
BRANCH  25  28
ATOM     28  CB  THR A   9      28.993  27.659  20.824  0.00  0.00    +0.136 C 
ATOM     29  CG2 THR A   9      28.688  26.617  21.891  0.00  0.00    +0.034 C 
BRANCH  28  30
ATOM     30  OG1 THR A   9      29.247  26.999  19.578  0.00  0.00    -0.382 OA
ATOM     31  HG1 THR A   9      30.008  26.374  19.686  0.00  0.00    +0.210 HD
ENDBRANCH  28  30
ENDBRANCH  25  28
ENDBRANCH  23  25
ENDBRANCH  20  21
BRANCH  20  32
ATOM     32  CB  MET A   8      23.882  28.235  18.422  0.00  0.00    +0.041 C 
BRANCH  32  33
ATOM     33  CG  MET A   8      22.957  27.360  17.599  0.00  0.00    +0.060 C 
BRANCH  33  34
ATOM     34  SD  MET A   8      22.518  28.149  16.032  0.00  0.00    -0.139 S 
ATOM     35  CE  MET A   8      21.215  29.221  16.568  0.00  0.00    +0.069 C 
ENDBRANCH  33  34
ENDBRANCH  32  33
ENDBRANCH  20  32
ENDBRANCH  18  20
ENDBRANCH  15  16
ENDBRANCH  13  15
ENDBRANCH  10  11
BRANCH  10  36
ATOM     36  CB  ILE A   6      21.046  22.463  22.958  0.00  0.00    +0.027 C 
ATOM     37  CG2 ILE A   6      20.995  22.728  21.472  0.00  0.00    +0.002 C 
BRANCH  36  38
ATOM     38  CG1 ILE A   6      22.491  22.227  23.402  0.00  0.00    +0.002 C 
ATOM     39  CD1 ILE A   6      22.604  21.468  24.698  0.00  0.00    +0.000 C 
ENDBRANCH  36  38
ENDBRANCH  10  36
ENDBRANCH   8  10
ENDBRANCH   5   6
ENDBRANCH   3   5
BRANCH   1  40
ATOM     40  CA  THR A   4      14.946  27.074  25.942  0.00  0.00    +0.176 C 
BRANCH  40  42
ATOM     41  C   ASP A   3      13.993  28.229  24.027  0.00  0.00    +0.241 C 
ATOM     42  N   THR A   4      13.941  27.236  24.903  0.00  0.00    -0.295 N 
ATOM     43  H   THR A   4      13.159  26.553  24.846  0.00  0.00    +0.150 HD
ATOM     44  O   ASP A   3      14.843  29.118  24.050  0.00  0.00    -0.273 OA
BRANCH  41  45
ATOM     45  CA  ASP A   3      12.893  28.242  22.991  0.00  0.00    +0.160 C 
BRANCH  45  47
ATOM     46  C   VAL A   2      11.694  30.129  22.090  0.00  0.00    +0.241 C 
ATOM     47  N   ASP A   3      12.853  29.559  22.396  0.00  0.00    -0.297 N 
ATOM     48  H   ASP A   3      13.741  30.065  22.206  0.00  0.00    +0.150 HD
ATOM     49  O   VAL A   2      10.611  29.573  22.256  0.00  0.00    -0.273 OA
BRANCH  46  50
ATOM     50  CA  VAL A   2      11.771  31.527  21.507  0.00  0.00    +0.148 C 
BRANCH  50  52
ATOM     51  C   ILE A   1      11.186  32.090  19.227  0.00  0.00    +0.238 C 
ATOM     52  N   VAL A   2      10.797  31.761  20.449  0.00  0.00    -0.297 N 
ATOM     53  H   VAL A   2       9.782  31.668  20.657  0.00  0.00    +0.150 HD
ATOM     54  O   ILE A   1      12.367  32.194  18.910  0.00  0.00    -0.274 OA
BRANCH  51  55
ATOM     55  CA  ILE A   1      10.087  32.343  18.208  0.00  0.00    +0.145 C 
BRANCH  55  56
ATOM     56  N   ILE A   1      10.241  33.722  17.770  0.00  0.00    -0.238 NA
ATOM     57  H   ILE A   1      11.056  33.985  17.179  0.00  0.00    +0.142 HD
ENDBRANCH  55  56
BRANCH  55  58
ATOM     58  CB  ILE A   1      10.222  31.340  17.049  0.00  0.00    +0.025 C 
ATOM     59  CG2 ILE A   1      10.258  29.913  17.603  0.00  0.00    +0.002 C 
BRANCH  58  60
ATOM     60  CG1 ILE A   1       9.042  31.498  16.085  0.00  0.00    +0.002 C 
ATOM     61  CD1 ILE A   1       9.085  32.772  15.258  0.00  0.00    +0.000 C 
ENDBRANCH  58  60
ENDBRANCH  55  58
ENDBRANCH  51  55
ENDBRANCH  50  52
BRANCH  50  62
ATOM     62  CB  VAL A   2      11.571  32.522  22.664  0.00  0.00    +0.027 C 
ATOM     63  CG2 VAL A   2      12.679  32.342  23.706  0.00  0.00    +0.002 C 
ATOM     64  CG1 VAL A   2      11.545  33.934  22.124  0.00  0.00    +0.002 C 
ENDBRANCH  50  62
ENDBRANCH  46  50
ENDBRANCH  45  47
BRANCH  45  65
ATOM     65  CB  ASP A   3      13.136  27.145  21.932  0.00  0.00    +0.143 C 
BRANCH  65  66
ATOM     66  CG  ASP A   3      14.546  27.168  21.342  0.00  0.00    +0.367 C 
ATOM     67  OD2 ASP A   3      15.532  26.926  22.076  0.00  0.00    -0.246 OA
ATOM     68  OD1 ASP A   3      14.670  27.411  20.122  0.00  0.00    -0.246 OA
ENDBRANCH  65  66
ENDBRANCH  45  65
ENDBRANCH  41  45
ENDBRANCH  40  42
BRANCH  40  69
ATOM     69  CB  THR A   4      14.304  26.980  27.332  0.00  0.00    +0.137 C 
ATOM     70  CG2 THR A   4      13.840  28.356  27.802  0.00  0.00    +0.034 C 
BRANCH  69  71
ATOM     71  OG1 THR A   4      13.191  26.084  27.287  0.00  0.00    -0.382 OA
ATOM     72  HG1 THR A   4      12.779  26.026  28.185  0.00  0.00    +0.210 HD
ENDBRANCH  69  71
ENDBRANCH  40  69
ENDBRANCH   1  40
TORSDOF 32
REMARK  Name = ../refined-set-2016/2qg0/2qg0_pocket.pdb
REMARK  229 active torsions:
REMARK  status: ('A' for Active; 'I' for Inactive)
REMARK    1  A    between atoms: _1  and  _3
REMARK    2  A    between atoms: _3  and  _4
REMARK    3  A    between atoms: _3  and  _6
REMARK    4  A    between atoms: _6  and  _7
REMARK    5  A    between atoms: _10  and  _12
REMARK    6  A    between atoms: _12  and  _13
REMARK    7  A    between atoms: _12  and  _15
REMARK    8  A    between atoms: _15  and  _16
REMARK    9  A    between atoms: _19  and  _21
REMARK   10  A    between atoms: _21  and  _22
REMARK   11  A    between atoms: _21  and  _24
REMARK   12  A    between atoms: _24  and  _25
REMARK   13  A    between atoms: _25  and  _26
REMARK   14  A    between atoms: _29  and  _31
REMARK   15  A    between atoms: _31  and  _32
REMARK   16  A    between atoms: _31  and  _34
REMARK   17  A    between atoms: _34  and  _35
REMARK   18  A    between atoms: _38  and  _40
REMARK   19  A    between atoms: _40  and  _41
REMARK   20  A    between atoms: _40  and  _43
REMARK   21  A    between atoms: _43  and  _44
REMARK   22  A    between atoms: _47  and  _49
REMARK   23  A    between atoms: _49  and  _50
REMARK   24  A    between atoms: _49  and  _52
REMARK   25  A    between atoms: _52  and  _53
REMARK   26  A    between atoms: _55  and  _57
REMARK   27  A    between atoms: _57  and  _58
REMARK   28  A    between atoms: _57  and  _60
REMARK   29  A    between atoms: _60  and  _61
REMARK   30  A    between atoms: _66  and  _68
REMARK   31  A    between atoms: _68  and  _69
REMARK   32  A    between atoms: _68  and  _71
REMARK   33  A    between atoms: _71  and  _72
REMARK   34  A    between atoms: _74  and  _76
REMARK   35  A    between atoms: _76  and  _77
REMARK   36  A    between atoms: _76  and  _79
REMARK   37  A    between atoms: _79  and  _80
REMARK   38  A    between atoms: _82  and  _84
REMARK   39  A    between atoms: _84  and  _85
REMARK   40  A    between atoms: _84  and  _87
REMARK   41  A    between atoms: _87  and  _88
REMARK   42  A    between atoms: _91  and  _93
REMARK   43  A    between atoms: _93  and  _94
REMARK   44  A    between atoms: _97  and  _99
REMARK   45  A    between atoms: _99  and  _100
REMARK   46  A    between atoms: _99  and  _102
REMARK   47  A    between atoms: _102  and  _103
REMARK   48  A    between atoms: _106  and  _108
REMARK   49  A    between atoms: _108  and  _109
REMARK   50  A    between atoms: _108  and  _111
REMARK   51  A    between atoms: _111  and  _112
REMARK   52  A    between atoms: _115  and  _117
REMARK   53  A    between atoms: _117  and  _118
REMARK   54  A    between atoms: _117  and  _120
REMARK   55  A    between atoms: _120  and  _121
REMARK   56  A    between atoms: _121  and  _122
REMARK   57  A    between atoms: _122  and  _123
REMARK   58  A    between atoms: _123  and  _124
REMARK   59  A    between atoms: _128  and  _130
REMARK   60  A    between atoms: _130  and  _131
REMARK   61  A    between atoms: _130  and  _133
REMARK   62  A    between atoms: _133  and  _134
REMARK   63  A    between atoms: _137  and  _139
REMARK   64  A    between atoms: _139  and  _140
REMARK   65  A    between atoms: _139  and  _142
REMARK   66  A    between atoms: _142  and  _143
REMARK   67  A    between atoms: _143  and  _144
REMARK   68  A    between atoms: _147  and  _149
REMARK   69  A    between atoms: _149  and  _150
REMARK   70  A    between atoms: _149  and  _152
REMARK   71  A    between atoms: _152  and  _153
REMARK   72  A    between atoms: _156  and  _158
REMARK   73  A    between atoms: _158  and  _159
REMARK   74  A    between atoms: _158  and  _161
REMARK   75  A    between atoms: _161  and  _162
REMARK   76  A    between atoms: _165  and  _167
REMARK   77  A    between atoms: _167  and  _168
REMARK   78  A    between atoms: _167  and  _170
REMARK   79  A    between atoms: _173  and  _175
REMARK   80  A    between atoms: _175  and  _176
REMARK   81  A    between atoms: _175  and  _178
REMARK   82  A    between atoms: _178  and  _179
REMARK   83  A    between atoms: _182  and  _184
REMARK   84  A    between atoms: _184  and  _185
REMARK   85  A    between atoms: _184  and  _187
REMARK   86  A    between atoms: _187  and  _188
REMARK   87  A    between atoms: _191  and  _193
REMARK   88  A    between atoms: _193  and  _194
REMARK   89  A    between atoms: _196  and  _198
REMARK   90  A    between atoms: _198  and  _199
REMARK   91  A    between atoms: _198  and  _201
REMARK   92  A    between atoms: _201  and  _202
REMARK   93  A    between atoms: _205  and  _207
REMARK   94  A    between atoms: _207  and  _208
REMARK   95  A    between atoms: _210  and  _212
REMARK   96  A    between atoms: _212  and  _213
REMARK   97  A    between atoms: _212  and  _215
REMARK   98  A    between atoms: _215  and  _216
REMARK   99  A    between atoms: _216  and  _217
REMARK  100  A    between atoms: _219  and  _221
REMARK  101  A    between atoms: _221  and  _222
REMARK  102  A    between atoms: _221  and  _224
REMARK  103  A    between atoms: _224  and  _225
REMARK  104  A    between atoms: _228  and  _230
REMARK  105  A    between atoms: _230  and  _231
REMARK  106  A    between atoms: _230  and  _233
REMARK  107  A    between atoms: _233  and  _234
REMARK  108  A    between atoms: _237  and  _239
REMARK  109  A    between atoms: _239  and  _240
REMARK  110  A    between atoms: _239  and  _242
REMARK  111  A    between atoms: _242  and  _243
REMARK  112  A    between atoms: _246  and  _248
REMARK  113  A    between atoms: _248  and  _249
REMARK  114  A    between atoms: _248  and  _251
REMARK  115  A    between atoms: _251  and  _252
REMARK  116  A    between atoms: _257  and  _259
REMARK  117  A    between atoms: _259  and  _260
REMARK  118  A    between atoms: _259  and  _262
REMARK  119  A    between atoms: _262  and  _263
REMARK  120  A    between atoms: _268  and  _270
REMARK  121  A    between atoms: _270  and  _271
REMARK  122  A    between atoms: _270  and  _273
REMARK  123  A    between atoms: _273  and  _274
REMARK  124  A    between atoms: _277  and  _279
REMARK  125  A    between atoms: _279  and  _280
REMARK  126  A    between atoms: _282  and  _284
REMARK  127  A    between atoms: _284  and  _285
REMARK  128  A    between atoms: _284  and  _287
REMARK  129  A    between atoms: _287  and  _288
REMARK  130  A    between atoms: _291  and  _293
REMARK  131  A    between atoms: _293  and  _294
REMARK  132  A    between atoms: _293  and  _296
REMARK  133  A    between atoms: _296  and  _297
REMARK  134  A    between atoms: _300  and  _302
REMARK  135  A    between atoms: _302  and  _303
REMARK  136  A    between atoms: _306  and  _308
REMARK  137  A    between atoms: _308  and  _309
REMARK  138  A    between atoms: _308  and  _311
REMARK  139  A    between atoms: _311  and  _312
REMARK  140  A    between atoms: _312  and  _313
REMARK  141  A    between atoms: _313  and  _314
REMARK  142  A    between atoms: _314  and  _315
REMARK  143  A    between atoms: _319  and  _321
REMARK  144  A    between atoms: _321  and  _322
REMARK  145  A    between atoms: _321  and  _324
REMARK  146  A    between atoms: _324  and  _325
REMARK  147  A    between atoms: _327  and  _329
REMARK  148  A    between atoms: _329  and  _330
REMARK  149  A    between atoms: _332  and  _334
REMARK  150  A    between atoms: _334  and  _335
REMARK  151  A    between atoms: _334  and  _337
REMARK  152  A    between atoms: _337  and  _338
REMARK  153  A    between atoms: _341  and  _343
REMARK  154  A    between atoms: _343  and  _344
REMARK  155  A    between atoms: _343  and  _346
REMARK  156  A    between atoms: _346  and  _347
REMARK  157  A    between atoms: _350  and  _352
REMARK  158  A    between atoms: _352  and  _353
REMARK  159  A    between atoms: _355  and  _357
REMARK  160  A    between atoms: _357  and  _358
REMARK  161  A    between atoms: _357  and  _360
REMARK  162  A    between atoms: _360  and  _361
REMARK  163  A    between atoms: _367  and  _369
REMARK  164  A    between atoms: _369  and  _370
REMARK  165  A    between atoms: _372  and  _374
REMARK  166  A    between atoms: _374  and  _375
REMARK  167  A    between atoms: _374  and  _377
REMARK  168  A    between atoms: _380  and  _382
REMARK  169  A    between atoms: _382  and  _383
REMARK  170  A    between atoms: _385  and  _387
REMARK  171  A    between atoms: _387  and  _388
REMARK  172  A    between atoms: _387  and  _390
REMARK  173  A    between atoms: _390  and  _391
REMARK  174  A    between atoms: _397  and  _399
REMARK  175  A    between atoms: _399  and  _400
REMARK  176  A    between atoms: _399  and  _402
REMARK  177  A    between atoms: _402  and  _403
REMARK  178  A    between atoms: _408  and  _409
REMARK  179  A    between atoms: _411  and  _413
REMARK  180  A    between atoms: _413  and  _414
REMARK  181  A    between atoms: _413  and  _416
REMARK  182  A    between atoms: _416  and  _417
REMARK  183  A    between atoms: _419  and  _421
REMARK  184  A    between atoms: _421  and  _422
REMARK  185  A    between atoms: _425  and  _427
REMARK  186  A    between atoms: _427  and  _428
REMARK  187  A    between atoms: _427  and  _430
REMARK  188  A    between atoms: _433  and  _435
REMARK  189  A    between atoms: _435  and  _436
REMARK  190  A    between atoms: _435  and  _438
REMARK  191  A    between atoms: _438  and  _439
REMARK  192  A    between atoms: _442  and  _444
REMARK  193  A    between atoms: _444  and  _445
REMARK  194  A    between atoms: _444  and  _447
REMARK  195  A    between atoms: _447  and  _448
REMARK  196  A    between atoms: _451  and  _453
REMARK  197  A    between atoms: _453  and  _454
REMARK  198  A    between atoms: _453  and  _456
REMARK  199  A    between atoms: _456  and  _457
REMARK  200  A    between atoms: _457  and  _458
REMARK  201  A    between atoms: _458  and  _459
REMARK  202  A    between atoms: _459  and  _460
REMARK  203  A    between atoms: _464  and  _466
REMARK  204  A    between atoms: _466  and  _467
REMARK  205  A    between atoms: _466  and  _469
REMARK  206  A    between atoms: _469  and  _470
REMARK  207  A    between atoms: _475  and  _477
REMARK  208  A    between atoms: _477  and  _478
REMARK  209  A    between atoms: _480  and  _482
REMARK  210  A    between atoms: _482  and  _483
REMARK  211  A    between atoms: _482  and  _485
REMARK  212  A    between atoms: _485  and  _486
REMARK  213  A    between atoms: _489  and  _491
REMARK  214  A    between atoms: _491  and  _492
REMARK  215  A    between atoms: _491  and  _494
REMARK  216  A    between atoms: _494  and  _495
REMARK  217  A    between atoms: _495  and  _496
REMARK  218  A    between atoms: _496  and  _497
REMARK  219  A    between atoms: _497  and  _498
REMARK  220  A    between atoms: _502  and  _504
REMARK  221  A    between atoms: _504  and  _505
REMARK  222  A    between atoms: _504  and  _507
REMARK  223  A    between atoms: _510  and  _512
REMARK  224  A    between atoms: _512  and  _513
REMARK  225  A    between atoms: _512  and  _515
REMARK  226  A    between atoms: _515  and  _516
REMARK  227  A    between atoms: _516  and  _517
REMARK  228  A    between atoms: _517  and  _518
REMARK  229  A    between atoms: _518  and  _519
REMARK                            x       y       z     vdW  Elec       q    Type
REMARK                         _______ _______ _______ _____ _____    ______ ____
ROOT
ATOM      1  C   ASP A   1      26.935  27.890  15.115  0.00  0.00    +0.239 C 
ATOM      2  N   LEU A   2      26.779  29.128  15.579  0.00  0.00    -0.298 N 
ATOM      3  H   LEU A   2      27.153  29.365  16.520  0.00  0.00    +0.150 HD
ATOM      4  O   ASP A   1      26.522  27.527  14.013  0.00  0.00    -0.274 OA
ENDROOT
BRANCH   1   5
ATOM      5  CA  ASP A   1      27.664  26.918  16.035  0.00  0.00    +0.156 C 
BRANCH   5   6
ATOM      6  N   ASP A   1      28.879  27.545  16.553  0.00  0.00    -0.238 NA
ATOM      7  H   ASP A   1      28.994  27.645  17.582  0.00  0.00    +0.142 HD
ENDBRANCH   5   6
BRANCH   5   8
ATOM      8  CB  ASP A   1      26.733  26.529  17.190  0.00  0.00    +0.140 C 
BRANCH   8   9
ATOM      9  CG  ASP A   1      27.269  25.384  18.026  0.00  0.00    +0.367 C 
ATOM     10  OD2 ASP A   1      26.777  25.210  19.166  0.00  0.00    -0.246 OA
ATOM     11  OD1 ASP A   1      28.163  24.655  17.551  0.00  0.00    -0.246 OA
ENDBRANCH   8   9
ENDBRANCH   5   8
ENDBRANCH   1   5
BRANCH   2  12
ATOM     12  CA  LEU A   2      26.096  30.168  14.804  0.00  0.00    +0.137 C 
BRANCH  12  13
ATOM     13  C   LEU A   2      26.699  30.378  13.422  0.00  0.00    +0.227 C 
ATOM     14  O   LEU A   2      25.987  30.400  12.414  0.00  0.00    -0.286 OA
ENDBRANCH  12  13
BRANCH  12  15
ATOM     15  CB  LEU A   2      26.137  31.504  15.548  0.00  0.00    +0.028 C 
BRANCH  15  16
ATOM     16  CG  LEU A   2      25.244  31.706  16.766  0.00  0.00    +0.002 C 
ATOM     17  CD2 LEU A   2      25.603  33.022  17.439  0.00  0.00    +0.000 C 
ATOM     18  CD1 LEU A   2      23.793  31.703  16.339  0.00  0.00    +0.000 C 
ENDBRANCH  15  16
ENDBRANCH  12  15
ENDBRANCH   2  12
TORSDOF 8
REMARK  Name = ../refined-set-2016/2qg0/2qg0_pocket.pdb
REMARK  229 active torsions:
REMARK  status: ('A' for Active; 'I' for Inactive)
REMARK    1  A    between atoms: _1  and  _3
REMARK    2  A    between atoms: _3  and  _4
REMARK    3  A    between atoms: _3  and  _6
REMARK    4  A    between atoms: _6  and  _7
REMARK    5  A    between atoms: _10  and  _12
REMARK    6  A    between atoms: _12  and  _13
REMARK    7  A    between atoms: _12  and  _15
REMARK    8  A    between atoms: _15  and  _16
REMARK    9  A    between atoms: _19  and  _21
REMARK   10  A    between atoms: _21  and  _22
REMARK   11  A    between atoms: _21  and  _24
REMARK   12  A    between atoms: _24  and  _25
REMARK   13  A    between atoms: _25  and  _26
REMARK   14  A    between atoms: _29  and  _31
REMARK   15  A    between atoms: _31  and  _32
REMARK   16  A    between atoms: _31  and  _34
REMARK   17  A    between atoms: _34  and  _35
REMARK   18  A    between atoms: _38  and  _40
REMARK   19  A    between atoms: _40  and  _41
REMARK   20  A    between atoms: _40  and  _43
REMARK   21  A    between atoms: _43  and  _44
REMARK   22  A    between atoms: _47  and  _49
REMARK   23  A    between atoms: _49  and  _50
REMARK   24  A    between atoms: _49  and  _52
REMARK   25  A    between atoms: _52  and  _53
REMARK   26  A    between atoms: _55  and  _57
REMARK   27  A    between atoms: _57  and  _58
REMARK   28  A    between atoms: _57  and  _60
REMARK   29  A    between atoms: _60  and  _61
REMARK   30  A    between atoms: _66  and  _68
REMARK   31  A    between atoms: _68  and  _69
REMARK   32  A    between atoms: _68  and  _71
REMARK   33  A    between atoms: _71  and  _72
REMARK   34  A    between atoms: _74  and  _76
REMARK   35  A    between atoms: _76  and  _77
REMARK   36  A    between atoms: _76  and  _79
REMARK   37  A    between atoms: _79  and  _80
REMARK   38  A    between atoms: _82  and  _84
REMARK   39  A    between atoms: _84  and  _85
REMARK   40  A    between atoms: _84  and  _87
REMARK   41  A    between atoms: _87  and  _88
REMARK   42  A    between atoms: _91  and  _93
REMARK   43  A    between atoms: _93  and  _94
REMARK   44  A    between atoms: _97  and  _99
REMARK   45  A    between atoms: _99  and  _100
REMARK   46  A    between atoms: _99  and  _102
REMARK   47  A    between atoms: _102  and  _103
REMARK   48  A    between atoms: _106  and  _108
REMARK   49  A    between atoms: _108  and  _109
REMARK   50  A    between atoms: _108  and  _111
REMARK   51  A    between atoms: _111  and  _112
REMARK   52  A    between atoms: _115  and  _117
REMARK   53  A    between atoms: _117  and  _118
REMARK   54  A    between atoms: _117  and  _120
REMARK   55  A    between atoms: _120  and  _121
REMARK   56  A    between atoms: _121  and  _122
REMARK   57  A    between atoms: _122  and  _123
REMARK   58  A    between atoms: _123  and  _124
REMARK   59  A    between atoms: _128  and  _130
REMARK   60  A    between atoms: _130  and  _131
REMARK   61  A    between atoms: _130  and  _133
REMARK   62  A    between atoms: _133  and  _134
REMARK   63  A    between atoms: _137  and  _139
REMARK   64  A    between atoms: _139  and  _140
REMARK   65  A    between atoms: _139  and  _142
REMARK   66  A    between atoms: _142  and  _143
REMARK   67  A    between atoms: _143  and  _144
REMARK   68  A    between atoms: _147  and  _149
REMARK   69  A    between atoms: _149  and  _150
REMARK   70  A    between atoms: _149  and  _152
REMARK   71  A    between atoms: _152  and  _153
REMARK   72  A    between atoms: _156  and  _158
REMARK   73  A    between atoms: _158  and  _159
REMARK   74  A    between atoms: _158  and  _161
REMARK   75  A    between atoms: _161  and  _162
REMARK   76  A    between atoms: _165  and  _167
REMARK   77  A    between atoms: _167  and  _168
REMARK   78  A    between atoms: _167  and  _170
REMARK   79  A    between atoms: _173  and  _175
REMARK   80  A    between atoms: _175  and  _176
REMARK   81  A    between atoms: _175  and  _178
REMARK   82  A    between atoms: _178  and  _179
REMARK   83  A    between atoms: _182  and  _184
REMARK   84  A    between atoms: _184  and  _185
REMARK   85  A    between atoms: _184  and  _187
REMARK   86  A    between atoms: _187  and  _188
REMARK   87  A    between atoms: _191  and  _193
REMARK   88  A    between atoms: _193  and  _194
REMARK   89  A    between atoms: _196  and  _198
REMARK   90  A    between atoms: _198  and  _199
REMARK   91  A    between atoms: _198  and  _201
REMARK   92  A    between atoms: _201  and  _202
REMARK   93  A    between atoms: _205  and  _207
REMARK   94  A    between atoms: _207  and  _208
REMARK   95  A    between atoms: _210  and  _212
REMARK   96  A    between atoms: _212  and  _213
REMARK   97  A    between atoms: _212  and  _215
REMARK   98  A    between atoms: _215  and  _216
REMARK   99  A    between atoms: _216  and  _217
REMARK  100  A    between atoms: _219  and  _221
REMARK  101  A    between atoms: _221  and  _222
REMARK  102  A    between atoms: _221  and  _224
REMARK  103  A    between atoms: _224  and  _225
REMARK  104  A    between atoms: _228  and  _230
REMARK  105  A    between atoms: _230  and  _231
REMARK  106  A    between atoms: _230  and  _233
REMARK  107  A    between atoms: _233  and  _234
REMARK  108  A    between atoms: _237  and  _239
REMARK  109  A    between atoms: _239  and  _240
REMARK  110  A    between atoms: _239  and  _242
REMARK  111  A    between atoms: _242  and  _243
REMARK  112  A    between atoms: _246  and  _248
REMARK  113  A    between atoms: _248  and  _249
REMARK  114  A    between atoms: _248  and  _251
REMARK  115  A    between atoms: _251  and  _252
REMARK  116  A    between atoms: _257  and  _259
REMARK  117  A    between atoms: _259  and  _260
REMARK  118  A    between atoms: _259  and  _262
REMARK  119  A    between atoms: _262  and  _263
REMARK  120  A    between atoms: _268  and  _270
REMARK  121  A    between atoms: _270  and  _271
REMARK  122  A    between atoms: _270  and  _273
REMARK  123  A    between atoms: _273  and  _274
REMARK  124  A    between atoms: _277  and  _279
REMARK  125  A    between atoms: _279  and  _280
REMARK  126  A    between atoms: _282  and  _284
REMARK  127  A    between atoms: _284  and  _285
REMARK  128  A    between atoms: _284  and  _287
REMARK  129  A    between atoms: _287  and  _288
REMARK  130  A    between atoms: _291  and  _293
REMARK  131  A    between atoms: _293  and  _294
REMARK  132  A    between atoms: _293  and  _296
REMARK  133  A    between atoms: _296  and  _297
REMARK  134  A    between atoms: _300  and  _302
REMARK  135  A    between atoms: _302  and  _303
REMARK  136  A    between atoms: _306  and  _308
REMARK  137  A    between atoms: _308  and  _309
REMARK  138  A    between atoms: _308  and  _311
REMARK  139  A    between atoms: _311  and  _312
REMARK  140  A    between atoms: _312  and  _313
REMARK  141  A    between atoms: _313  and  _314
REMARK  142  A    between atoms: _314  and  _315
REMARK  143  A    between atoms: _319  and  _321
REMARK  144  A    between atoms: _321  and  _322
REMARK  145  A    between atoms: _321  and  _324
REMARK  146  A    between atoms: _324  and  _325
REMARK  147  A    between atoms: _327  and  _329
REMARK  148  A    between atoms: _329  and  _330
REMARK  149  A    between atoms: _332  and  _334
REMARK  150  A    between atoms: _334  and  _335
REMARK  151  A    between atoms: _334  and  _337
REMARK  152  A    between atoms: _337  and  _338
REMARK  153  A    between atoms: _341  and  _343
REMARK  154  A    between atoms: _343  and  _344
REMARK  155  A    between atoms: _343  and  _346
REMARK  156  A    between atoms: _346  and  _347
REMARK  157  A    between atoms: _350  and  _352
REMARK  158  A    between atoms: _352  and  _353
REMARK  159  A    between atoms: _355  and  _357
REMARK  160  A    between atoms: _357  and  _358
REMARK  161  A    between atoms: _357  and  _360
REMARK  162  A    between atoms: _360  and  _361
REMARK  163  A    between atoms: _367  and  _369
REMARK  164  A    between atoms: _369  and  _370
REMARK  165  A    between atoms: _372  and  _374
REMARK  166  A    between atoms: _374  and  _375
REMARK  167  A    between atoms: _374  and  _377
REMARK  168  A    between atoms: _380  and  _382
REMARK  169  A    between atoms: _382  and  _383
REMARK  170  A    between atoms: _385  and  _387
REMARK  171  A    between atoms: _387  and  _388
REMARK  172  A    between atoms: _387  and  _390
REMARK  173  A    between atoms: _390  and  _391
REMARK  174  A    between atoms: _397  and  _399
REMARK  175  A    between atoms: _399  and  _400
REMARK  176  A    between atoms: _399  and  _402
REMARK  177  A    between atoms: _402  and  _403
REMARK  178  A    between atoms: _408  and  _409
REMARK  179  A    between atoms: _411  and  _413
REMARK  180  A    between atoms: _413  and  _414
REMARK  181  A    between atoms: _413  and  _416
REMARK  182  A    between atoms: _416  and  _417
REMARK  183  A    between atoms: _419  and  _421
REMARK  184  A    between atoms: _421  and  _422
REMARK  185  A    between atoms: _425  and  _427
REMARK  186  A    between atoms: _427  and  _428
REMARK  187  A    between atoms: _427  and  _430
REMARK  188  A    between atoms: _433  and  _435
REMARK  189  A    between atoms: _435  and  _436
REMARK  190  A    between atoms: _435  and  _438
REMARK  191  A    between atoms: _438  and  _439
REMARK  192  A    between atoms: _442  and  _444
REMARK  193  A    between atoms: _444  and  _445
REMARK  194  A    between atoms: _444  and  _447
REMARK  195  A    between atoms: _447  and  _448
REMARK  196  A    between atoms: _451  and  _453
REMARK  197  A    between atoms: _453  and  _454
REMARK  198  A    between atoms: _453  and  _456
REMARK  199  A    between atoms: _456  and  _457
REMARK  200  A    between atoms: _457  and  _458
REMARK  201  A    between atoms: _458  and  _459
REMARK  202  A    between atoms: _459  and  _460
REMARK  203  A    between atoms: _464  and  _466
REMARK  204  A    between atoms: _466  and  _467
REMARK  205  A    between atoms: _466  and  _469
REMARK  206  A    between atoms: _469  and  _470
REMARK  207  A    between atoms: _475  and  _477
REMARK  208  A    between atoms: _477  and  _478
REMARK  209  A    between atoms: _480  and  _482
REMARK  210  A    between atoms: _482  and  _483
REMARK  211  A    between atoms: _482  and  _485
REMARK  212  A    between atoms: _485  and  _486
REMARK  213  A    between atoms: _489  and  _491
REMARK  214  A    between atoms: _491  and  _492
REMARK  215  A    between atoms: _491  and  _494
REMARK  216  A    between atoms: _494  and  _495
REMARK  217  A    between atoms: _495  and  _496
REMARK  218  A    between atoms: _496  and  _497
REMARK  219  A    between atoms: _497  and  _498
REMARK  220  A    between atoms: _502  and  _504
REMARK  221  A    between atoms: _504  and  _505
REMARK  222  A    between atoms: _504  and  _507
REMARK  223  A    between atoms: _510  and  _512
REMARK  224  A    between atoms: _512  and  _513
REMARK  225  A    between atoms: _512  and  _515
REMARK  226  A    between atoms: _515  and  _516
REMARK  227  A    between atoms: _516  and  _517
REMARK  228  A    between atoms: _517  and  _518
REMARK  229  A    between atoms: _518  and  _519
REMARK                            x       y       z     vdW  Elec       q    Type
REMARK                         _______ _______ _______ _____ _____    ______ ____
ROOT
ATOM      1  CA  ILE A   6      26.124  24.190   4.246  0.00  0.00    +0.149 C 
ENDROOT
BRANCH   1   2
ATOM      2  C   ILE A   6      26.214  23.245   5.440  0.00  0.00    +0.241 C 
ATOM      3  N   ALA A   7      27.427  23.079   5.955  0.00  0.00    -0.297 N 
ATOM      4  H   ALA A   7      28.230  23.580   5.523  0.00  0.00    +0.150 HD
ATOM      5  O   ILE A   6      25.210  22.688   5.884  0.00  0.00    -0.273 OA
BRANCH   3   6
ATOM      6  CA  ALA A   7      27.669  22.220   7.102  0.00  0.00    +0.149 C 
ATOM      7  CB  ALA A   7      27.083  22.858   8.368  0.00  0.00    +0.031 C 
BRANCH   6   8
ATOM      8  C   ALA A   7      27.085  20.822   6.891  0.00  0.00    +0.241 C 
ATOM      9  N   LYS A   8      26.261  20.368   7.827  0.00  0.00    -0.297 N 
ATOM     10  H   LYS A   8      26.031  20.966   8.646  0.00  0.00    +0.150 HD
ATOM     11  O   ALA A   7      27.373  20.165   5.891  0.00  0.00    -0.273 OA
BRANCH   9  12
ATOM     12  CA  LYS A   8      25.676  19.038   7.716  0.00  0.00    +0.149 C 
BRANCH  12  13
ATOM     13  C   LYS A   8      24.337  19.053   6.988  0.00  0.00    +0.241 C 
ATOM     14  O   LYS A   8      23.682  18.016   6.859  0.00  0.00    -0.273 OA
ATOM     15  N   SER A   9      23.942  20.227   6.497  0.00  0.00    -0.295 N 
ATOM     16  H   SER A   9      24.557  21.058   6.611  0.00  0.00    +0.150 HD
BRANCH  15  17
ATOM     17  CA  SER A   9      22.665  20.375   5.803  0.00  0.00    +0.178 C 
BRANCH  17  18
ATOM     18  C   SER A   9      22.676  19.770   4.407  0.00  0.00    +0.243 C 
ATOM     19  O   SER A   9      23.731  19.457   3.854  0.00  0.00    -0.273 OA
ATOM     20  N   GLY A  10      21.481  19.631   3.841  0.00  0.00    -0.295 N 
ATOM     21  H   GLY A  10      20.630  19.918   4.365  0.00  0.00    +0.150 HD
BRANCH  20  22
ATOM     22  CA  GLY A  10      21.346  19.087   2.506  0.00  0.00    +0.176 C 
BRANCH  22  23
ATOM     23  C   GLY A  10      21.016  20.195   1.526  0.00  0.00    +0.243 C 
ATOM     24  N   THR A  11      21.673  21.339   1.701  0.00  0.00    -0.296 N 
ATOM     25  H   THR A  11      22.356  21.407   2.483  0.00  0.00    +0.150 HD
ATOM     26  O   GLY A  10      20.183  20.021   0.640  0.00  0.00    -0.273 OA
BRANCH  24  27
ATOM     27  CA  THR A  11      21.476  22.502   0.843  0.00  0.00    +0.164 C 
BRANCH  27  28
ATOM     28  CB  THR A  11      22.521  23.602   1.146  0.00  0.00    +0.136 C 
ATOM     29  CG2 THR A  11      22.405  24.747   0.151  0.00  0.00    +0.034 C 
BRANCH  28  30
ATOM     30  OG1 THR A  11      22.312  24.105   2.471  0.00  0.00    -0.382 OA
ATOM     31  HG1 THR A  11      22.411  23.366   3.123  0.00  0.00    +0.210 HD
ENDBRANCH  28  30
ENDBRANCH  27  28
BRANCH  27  32
ATOM     32  C   THR A  11      21.564  22.147  -0.634  0.00  0.00    +0.229 C 
ATOM     33  O   THR A  11      20.655  22.443  -1.404  0.00  0.00    -0.286 OA
ENDBRANCH  27  32
ENDBRANCH  24  27
ENDBRANCH  22  23
ENDBRANCH  20  22
ENDBRANCH  17  18
BRANCH  17  34
ATOM     34  CB  SER A   9      22.296  21.851   5.669  0.00  0.00    +0.166 C 
BRANCH  34  35
ATOM     35  OG  SER A   9      23.021  22.435   4.601  0.00  0.00    -0.380 OA
ATOM     36  H   SER A   9      22.776  23.391   4.521  0.00  0.00    +0.211 HD
ENDBRANCH  34  35
ENDBRANCH  17  34
ENDBRANCH  15  17
ENDBRANCH  12  13
BRANCH  12  37
ATOM     37  CB  LYS A   8      25.502  18.430   9.110  0.00  0.00    +0.029 C 
BRANCH  37  38
ATOM     38  CG  LYS A   8      24.491  19.156   9.982  0.00  0.00    +0.000 C 
BRANCH  38  39
ATOM     39  CD  LYS A   8      24.468  18.595  11.398  0.00  0.00    -0.024 C 
BRANCH  39  40
ATOM     40  CE  LYS A   8      24.557  17.078  11.416  0.00  0.00    -0.086 C 
BRANCH  40  41
ATOM     41  NZ  LYS A   8      25.946  16.578  11.178  0.00  0.00    +0.380 N 
ATOM     42  HZ1 LYS A   8      26.577  16.943  11.920  0.00  0.00    -0.089 HD
ATOM     43  HZ2 LYS A   8      25.948  15.538  11.201  0.00  0.00    -0.089 HD
ATOM     44  HZ3 LYS A   8      26.277  16.906  10.248  0.00  0.00    -0.089 HD
ENDBRANCH  40  41
ENDBRANCH  39  40
ENDBRANCH  38  39
ENDBRANCH  37  38
ENDBRANCH  12  37
ENDBRANCH   9  12
ENDBRANCH   6   8
ENDBRANCH   3   6
ENDBRANCH   1   2
BRANCH   1  47
ATOM     45  C   THR A   5      26.656  26.134   5.610  0.00  0.00    +0.243 C 
ATOM     46  O   THR A   5      25.795  25.853   6.442  0.00  0.00    -0.273 OA
ATOM     47  N   ILE A   6      26.888  25.399   4.529  0.00  0.00    -0.297 N 
ATOM     48  H   ILE A   6      27.634  25.693   3.867  0.00  0.00    +0.150 HD
BRANCH  45  49
ATOM     49  CA  THR A   5      27.545  27.363   5.784  0.00  0.00    +0.176 C 
BRANCH  49  51
ATOM     50  C   GLY A   4      27.011  29.627   6.477  0.00  0.00    +0.243 C 
ATOM     51  N   THR A   5      27.007  28.323   6.742  0.00  0.00    -0.295 N 
ATOM     52  H   THR A   5      26.615  27.984   7.644  0.00  0.00    +0.150 HD
ATOM     53  O   GLY A   4      27.431  30.093   5.412  0.00  0.00    -0.273 OA
BRANCH  50  54
ATOM     54  CA  GLY A   4      26.460  30.548   7.548  0.00  0.00    +0.176 C 
BRANCH  54  56
ATOM     55  C   LEU A   3      24.449  30.063   8.734  0.00  0.00    +0.241 C 
ATOM     56  N   GLY A   4      25.761  29.904   8.643  0.00  0.00    -0.295 N 
ATOM     57  H   GLY A   4      26.277  29.331   9.340  0.00  0.00    +0.150 HD
ATOM     58  O   LEU A   3      23.817  30.708   7.903  0.00  0.00    -0.273 OA
BRANCH  55  59
ATOM     59  CA  LEU A   3      23.726  29.393   9.902  0.00  0.00    +0.149 C 
BRANCH  59  61
ATOM     60  C   ASN A   2      24.254  27.102  10.448  0.00  0.00    +0.241 C 
ATOM     61  N   LEU A   3      24.487  28.393  10.645  0.00  0.00    -0.297 N 
ATOM     62  H   LEU A   3      25.211  28.693  11.328  0.00  0.00    +0.150 HD
ATOM     63  O   ASN A   2      23.426  26.692   9.636  0.00  0.00    -0.273 OA
BRANCH  60  64
ATOM     64  CA  ASN A   2      25.061  26.124  11.278  0.00  0.00    +0.158 C 
BRANCH  64  66
ATOM     65  C   ASN A   1      27.325  26.696  10.595  0.00  0.00    +0.239 C 
ATOM     66  N   ASN A   2      26.418  26.575  11.557  0.00  0.00    -0.297 N 
ATOM     67  H   ASN A   2      26.683  26.808  12.535  0.00  0.00    +0.150 HD
ATOM     68  O   ASN A   1      27.086  26.446   9.411  0.00  0.00    -0.274 OA
BRANCH  65  69
ATOM     69  CA  ASN A   1      28.716  27.151  11.031  0.00  0.00    +0.154 C 
BRANCH  69  70
ATOM     70  N   ASN A   1      28.728  28.380  11.807  0.00  0.00    -0.238 NA
ATOM     71  H   ASN A   1      28.765  28.328  12.845  0.00  0.00    +0.142 HD
ENDBRANCH  69  70
BRANCH  69  72
ATOM     72  CB  ASN A   1      29.366  26.029  11.826  0.00  0.00    +0.111 C 
BRANCH  72  73
ATOM     73  CG  ASN A   1      29.227  24.692  11.146  0.00  0.00    +0.221 C 
ATOM     74  ND2 ASN A   1      28.351  23.842  11.681  0.00  0.00    -0.329 N 
ATOM     75 HD21 ASN A   1      27.819  24.111  12.533  0.00  0.00    +0.145 HD
ATOM     76 HD22 ASN A   1      28.199  22.910  11.246  0.00  0.00    +0.145 HD
ATOM     77  OD1 ASN A   1      29.884  24.425  10.137  0.00  0.00    -0.275 OA
ENDBRANCH  72  73
ENDBRANCH  69  72
ENDBRANCH  65  69
ENDBRANCH  64  66
BRANCH  64  78
ATOM     78  CB  ASN A   2      24.307  25.855  12.582  0.00  0.00    +0.114 C 
BRANCH  78  79
ATOM     79  CG  ASN A   2      24.992  24.822  13.446  0.00  0.00    +0.222 C 
ATOM     80  ND2 ASN A   2      24.532  24.693  14.685  0.00  0.00    -0.329 N 
ATOM     81 HD21 ASN A   2      24.958  23.995  15.328  0.00  0.00    +0.145 HD
ATOM     82 HD22 ASN A   2      23.746  25.290  15.013  0.00  0.00    +0.145 HD
ATOM     83  OD1 ASN A   2      25.919  24.142  13.006  0.00  0.00    -0.275 OA
ENDBRANCH  78  79
ENDBRANCH  64  78
ENDBRANCH  60  64
ENDBRANCH  59  61
BRANCH  59  84
ATOM     84  CB  LEU A   3      23.199  30.461  10.866  0.00  0.00    +0.029 C 
BRANCH  84  85
ATOM     85  CG  LEU A   3      22.216  29.965  11.930  0.00  0.00    +0.002 C 
ATOM     86  CD2 LEU A   3      21.559  31.147  12.609  0.00  0.00    +0.000 C 
ATOM     87  CD1 LEU A   3      21.156  29.088  11.286  0.00  0.00    +0.000 C 
ENDBRANCH  84  85
ENDBRANCH  59  84
ENDBRANCH  55  59
ENDBRANCH  54  56
ENDBRANCH  50  54
ENDBRANCH  49  51
BRANCH  49  88
ATOM     88  CB  THR A   5      28.931  26.860   6.225  0.00  0.00    +0.137 C 
ATOM     89  CG2 THR A   5      29.770  28.010   6.771  0.00  0.00    +0.034 C 
BRANCH  88  90
ATOM     90  OG1 THR A   5      28.770  25.874   7.250  0.00  0.00    -0.382 OA
ATOM     91  HG1 THR A   5      29.660  25.548   7.536  0.00  0.00    +0.210 HD
ENDBRANCH  88  90
ENDBRANCH  49  88
ENDBRANCH  45  49
ENDBRANCH   1  47
BRANCH   1  92
ATOM     92  CB  ILE A   6      26.669  23.468   2.996  0.00  0.00    +0.027 C 
ATOM     93  CG2 ILE A   6      26.051  22.075   2.885  0.00  0.00    +0.002 C 
BRANCH  92  94
ATOM     94  CG1 ILE A   6      26.373  24.303   1.747  0.00  0.00    +0.002 C 
ATOM     95  CD1 ILE A   6      26.863  23.674   0.454  0.00  0.00    +0.000 C 
ENDBRANCH  92  94
ENDBRANCH   1  92
TORSDOF 41
REMARK  Name = ../refined-set-2016/2qg0/2qg0_pocket.pdb
REMARK  229 active torsions:
REMARK  status: ('A' for Active; 'I' for Inactive)
REMARK    1  A    between atoms: _1  and  _3
REMARK    2  A    between atoms: _3  and  _4
REMARK    3  A    between atoms: _3  and  _6
REMARK    4  A    between atoms: _6  and  _7
REMARK    5  A    between atoms: _10  and  _12
REMARK    6  A    between atoms: _12  and  _13
REMARK    7  A    between atoms: _12  and  _15
REMARK    8  A    between atoms: _15  and  _16
REMARK    9  A    between atoms: _19  and  _21
REMARK   10  A    between atoms: _21  and  _22
REMARK   11  A    between atoms: _21  and  _24
REMARK   12  A    between atoms: _24  and  _25
REMARK   13  A    between atoms: _25  and  _26
REMARK   14  A    between atoms: _29  and  _31
REMARK   15  A    between atoms: _31  and  _32
REMARK   16  A    between atoms: _31  and  _34
REMARK   17  A    between atoms: _34  and  _35
REMARK   18  A    between atoms: _38  and  _40
REMARK   19  A    between atoms: _40  and  _41
REMARK   20  A    between atoms: _40  and  _43
REMARK   21  A    between atoms: _43  and  _44
REMARK   22  A    between atoms: _47  and  _49
REMARK   23  A    between atoms: _49  and  _50
REMARK   24  A    between atoms: _49  and  _52
REMARK   25  A    between atoms: _52  and  _53
REMARK   26  A    between atoms: _55  and  _57
REMARK   27  A    between atoms: _57  and  _58
REMARK   28  A    between atoms: _57  and  _60
REMARK   29  A    between atoms: _60  and  _61
REMARK   30  A    between atoms: _66  and  _68
REMARK   31  A    between atoms: _68  and  _69
REMARK   32  A    between atoms: _68  and  _71
REMARK   33  A    between atoms: _71  and  _72
REMARK   34  A    between atoms: _74  and  _76
REMARK   35  A    between atoms: _76  and  _77
REMARK   36  A    between atoms: _76  and  _79
REMARK   37  A    between atoms: _79  and  _80
REMARK   38  A    between atoms: _82  and  _84
REMARK   39  A    between atoms: _84  and  _85
REMARK   40  A    between atoms: _84  and  _87
REMARK   41  A    between atoms: _87  and  _88
REMARK   42  A    between atoms: _91  and  _93
REMARK   43  A    between atoms: _93  and  _94
REMARK   44  A    between atoms: _97  and  _99
REMARK   45  A    between atoms: _99  and  _100
REMARK   46  A    between atoms: _99  and  _102
REMARK   47  A    between atoms: _102  and  _103
REMARK   48  A    between atoms: _106  and  _108
REMARK   49  A    between atoms: _108  and  _109
REMARK   50  A    between atoms: _108  and  _111
REMARK   51  A    between atoms: _111  and  _112
REMARK   52  A    between atoms: _115  and  _117
REMARK   53  A    between atoms: _117  and  _118
REMARK   54  A    between atoms: _117  and  _120
REMARK   55  A    between atoms: _120  and  _121
REMARK   56  A    between atoms: _121  and  _122
REMARK   57  A    between atoms: _122  and  _123
REMARK   58  A    between atoms: _123  and  _124
REMARK   59  A    between atoms: _128  and  _130
REMARK   60  A    between atoms: _130  and  _131
REMARK   61  A    between atoms: _130  and  _133
REMARK   62  A    between atoms: _133  and  _134
REMARK   63  A    between atoms: _137  and  _139
REMARK   64  A    between atoms: _139  and  _140
REMARK   65  A    between atoms: _139  and  _142
REMARK   66  A    between atoms: _142  and  _143
REMARK   67  A    between atoms: _143  and  _144
REMARK   68  A    between atoms: _147  and  _149
REMARK   69  A    between atoms: _149  and  _150
REMARK   70  A    between atoms: _149  and  _152
REMARK   71  A    between atoms: _152  and  _153
REMARK   72  A    between atoms: _156  and  _158
REMARK   73  A    between atoms: _158  and  _159
REMARK   74  A    between atoms: _158  and  _161
REMARK   75  A    between atoms: _161  and  _162
REMARK   76  A    between atoms: _165  and  _167
REMARK   77  A    between atoms: _167  and  _168
REMARK   78  A    between atoms: _167  and  _170
REMARK   79  A    between atoms: _173  and  _175
REMARK   80  A    between atoms: _175  and  _176
REMARK   81  A    between atoms: _175  and  _178
REMARK   82  A    between atoms: _178  and  _179
REMARK   83  A    between atoms: _182  and  _184
REMARK   84  A    between atoms: _184  and  _185
REMARK   85  A    between atoms: _184  and  _187
REMARK   86  A    between atoms: _187  and  _188
REMARK   87  A    between atoms: _191  and  _193
REMARK   88  A    between atoms: _193  and  _194
REMARK   89  A    between atoms: _196  and  _198
REMARK   90  A    between atoms: _198  and  _199
REMARK   91  A    between atoms: _198  and  _201
REMARK   92  A    between atoms: _201  and  _202
REMARK   93  A    between atoms: _205  and  _207
REMARK   94  A    between atoms: _207  and  _208
REMARK   95  A    between atoms: _210  and  _212
REMARK   96  A    between atoms: _212  and  _213
REMARK   97  A    between atoms: _212  and  _215
REMARK   98  A    between atoms: _215  and  _216
REMARK   99  A    between atoms: _216  and  _217
REMARK  100  A    between atoms: _219  and  _221
REMARK  101  A    between atoms: _221  and  _222
REMARK  102  A    between atoms: _221  and  _224
REMARK  103  A    between atoms: _224  and  _225
REMARK  104  A    between atoms: _228  and  _230
REMARK  105  A    between atoms: _230  and  _231
REMARK  106  A    between atoms: _230  and  _233
REMARK  107  A    between atoms: _233  and  _234
REMARK  108  A    between atoms: _237  and  _239
REMARK  109  A    between atoms: _239  and  _240
REMARK  110  A    between atoms: _239  and  _242
REMARK  111  A    between atoms: _242  and  _243
REMARK  112  A    between atoms: _246  and  _248
REMARK  113  A    between atoms: _248  and  _249
REMARK  114  A    between atoms: _248  and  _251
REMARK  115  A    between atoms: _251  and  _252
REMARK  116  A    between atoms: _257  and  _259
REMARK  117  A    between atoms: _259  and  _260
REMARK  118  A    between atoms: _259  and  _262
REMARK  119  A    between atoms: _262  and  _263
REMARK  120  A    between atoms: _268  and  _270
REMARK  121  A    between atoms: _270  and  _271
REMARK  122  A    between atoms: _270  and  _273
REMARK  123  A    between atoms: _273  and  _274
REMARK  124  A    between atoms: _277  and  _279
REMARK  125  A    between atoms: _279  and  _280
REMARK  126  A    between atoms: _282  and  _284
REMARK  127  A    between atoms: _284  and  _285
REMARK  128  A    between atoms: _284  and  _287
REMARK  129  A    between atoms: _287  and  _288
REMARK  130  A    between atoms: _291  and  _293
REMARK  131  A    between atoms: _293  and  _294
REMARK  132  A    between atoms: _293  and  _296
REMARK  133  A    between atoms: _296  and  _297
REMARK  134  A    between atoms: _300  and  _302
REMARK  135  A    between atoms: _302  and  _303
REMARK  136  A    between atoms: _306  and  _308
REMARK  137  A    between atoms: _308  and  _309
REMARK  138  A    between atoms: _308  and  _311
REMARK  139  A    between atoms: _311  and  _312
REMARK  140  A    between atoms: _312  and  _313
REMARK  141  A    between atoms: _313  and  _314
REMARK  142  A    between atoms: _314  and  _315
REMARK  143  A    between atoms: _319  and  _321
REMARK  144  A    between atoms: _321  and  _322
REMARK  145  A    between atoms: _321  and  _324
REMARK  146  A    between atoms: _324  and  _325
REMARK  147  A    between atoms: _327  and  _329
REMARK  148  A    between atoms: _329  and  _330
REMARK  149  A    between atoms: _332  and  _334
REMARK  150  A    between atoms: _334  and  _335
REMARK  151  A    between atoms: _334  and  _337
REMARK  152  A    between atoms: _337  and  _338
REMARK  153  A    between atoms: _341  and  _343
REMARK  154  A    between atoms: _343  and  _344
REMARK  155  A    between atoms: _343  and  _346
REMARK  156  A    between atoms: _346  and  _347
REMARK  157  A    between atoms: _350  and  _352
REMARK  158  A    between atoms: _352  and  _353
REMARK  159  A    between atoms: _355  and  _357
REMARK  160  A    between atoms: _357  and  _358
REMARK  161  A    between atoms: _357  and  _360
REMARK  162  A    between atoms: _360  and  _361
REMARK  163  A    between atoms: _367  and  _369
REMARK  164  A    between atoms: _369  and  _370
REMARK  165  A    between atoms: _372  and  _374
REMARK  166  A    between atoms: _374  and  _375
REMARK  167  A    between atoms: _374  and  _377
REMARK  168  A    between atoms: _380  and  _382
REMARK  169  A    between atoms: _382  and  _383
REMARK  170  A    between atoms: _385  and  _387
REMARK  171  A    between atoms: _387  and  _388
REMARK  172  A    between atoms: _387  and  _390
REMARK  173  A    between atoms: _390  and  _391
REMARK  174  A    between atoms: _397  and  _399
REMARK  175  A    between atoms: _399  and  _400
REMARK  176  A    between atoms: _399  and  _402
REMARK  177  A    between atoms: _402  and  _403
REMARK  178  A    between atoms: _408  and  _409
REMARK  179  A    between atoms: _411  and  _413
REMARK  180  A    between atoms: _413  and  _414
REMARK  181  A    between atoms: _413  and  _416
REMARK  182  A    between atoms: _416  and  _417
REMARK  183  A    between atoms: _419  and  _421
REMARK  184  A    between atoms: _421  and  _422
REMARK  185  A    between atoms: _425  and  _427
REMARK  186  A    between atoms: _427  and  _428
REMARK  187  A    between atoms: _427  and  _430
REMARK  188  A    between atoms: _433  and  _435
REMARK  189  A    between atoms: _435  and  _436
REMARK  190  A    between atoms: _435  and  _438
REMARK  191  A    between atoms: _438  and  _439
REMARK  192  A    between atoms: _442  and  _444
REMARK  193  A    between atoms: _444  and  _445
REMARK  194  A    between atoms: _444  and  _447
REMARK  195  A    between atoms: _447  and  _448
REMARK  196  A    between atoms: _451  and  _453
REMARK  197  A    between atoms: _453  and  _454
REMARK  198  A    between atoms: _453  and  _456
REMARK  199  A    between atoms: _456  and  _457
REMARK  200  A    between atoms: _457  and  _458
REMARK  201  A    between atoms: _458  and  _459
REMARK  202  A    between atoms: _459  and  _460
REMARK  203  A    between atoms: _464  and  _466
REMARK  204  A    between atoms: _466  and  _467
REMARK  205  A    between atoms: _466  and  _469
REMARK  206  A    between atoms: _469  and  _470
REMARK  207  A    between atoms: _475  and  _477
REMARK  208  A    between atoms: _477  and  _478
REMARK  209  A    between atoms: _480  and  _482
REMARK  210  A    between atoms: _482  and  _483
REMARK  211  A    between atoms: _482  and  _485
REMARK  212  A    between atoms: _485  and  _486
REMARK  213  A    between atoms: _489  and  _491
REMARK  214  A    between atoms: _491  and  _492
REMARK  215  A    between atoms: _491  and  _494
REMARK  216  A    between atoms: _494  and  _495
REMARK  217  A    between atoms: _495  and  _496
REMARK  218  A    between atoms: _496  and  _497
REMARK  219  A    between atoms: _497  and  _498
REMARK  220  A    between atoms: _502  and  _504
REMARK  221  A    between atoms: _504  and  _505
REMARK  222  A    between atoms: _504  and  _507
REMARK  223  A    between atoms: _510  and  _512
REMARK  224  A    between atoms: _512  and  _513
REMARK  225  A    between atoms: _512  and  _515
REMARK  226  A    between atoms: _515  and  _516
REMARK  227  A    between atoms: _516  and  _517
REMARK  228  A    between atoms: _517  and  _518
REMARK  229  A    between atoms: _518  and  _519
REMARK                            x       y       z     vdW  Elec       q    Type
REMARK                         _______ _______ _______ _____ _____    ______ ____
ROOT
ATOM      1  CA  ILE A   1      12.817  22.424   2.930  0.00  0.00    +0.145 C 
ENDROOT
BRANCH   1   2
ATOM      2  C   ILE A   1      13.340  21.854   4.240  0.00  0.00    +0.238 C 
ATOM      3  N   GLY A   2      12.429  21.533   5.154  0.00  0.00    -0.297 N 
ATOM      4  H   GLY A   2      11.420  21.667   4.941  0.00  0.00    +0.150 HD
ATOM      5  O   ILE A   1      14.547  21.692   4.410  0.00  0.00    -0.274 OA
BRANCH   3   6
ATOM      6  CA  GLY A   2      12.824  20.998   6.447  0.00  0.00    +0.163 C 
BRANCH   6   7
ATOM      7  C   GLY A   2      13.521  19.651   6.412  0.00  0.00    +0.229 C 
ATOM      8  O   GLY A   2      14.375  19.370   7.256  0.00  0.00    -0.286 OA
ENDBRANCH   6   7
ENDBRANCH   3   6
ENDBRANCH   1   2
BRANCH   1   9
ATOM      9  N   ILE A   1      11.573  21.816   2.493  0.00  0.00    -0.238 NA
ATOM     10  H   ILE A   1      10.807  22.436   2.161  0.00  0.00    +0.142 HD
ENDBRANCH   1   9
BRANCH   1  11
ATOM     11  CB  ILE A   1      12.639  23.952   3.074  0.00  0.00    +0.025 C 
ATOM     12  CG2 ILE A   1      11.651  24.251   4.184  0.00  0.00    +0.002 C 
BRANCH  11  13
ATOM     13  CG1 ILE A   1      13.983  24.619   3.346  0.00  0.00    +0.002 C 
ATOM     14  CD1 ILE A   1      13.913  26.137   3.354  0.00  0.00    +0.000 C 
ENDBRANCH  11  13
ENDBRANCH   1  11
TORSDOF 6
REMARK  Name = ../refined-set-2016/2qg0/2qg0_pocket.pdb
REMARK  229 active torsions:
REMARK  status: ('A' for Active; 'I' for Inactive)
REMARK    1  A    between atoms: _1  and  _3
REMARK    2  A    between atoms: _3  and  _4
REMARK    3  A    between atoms: _3  and  _6
REMARK    4  A    between atoms: _6  and  _7
REMARK    5  A    between atoms: _10  and  _12
REMARK    6  A    between atoms: _12  and  _13
REMARK    7  A    between atoms: _12  and  _15
REMARK    8  A    between atoms: _15  and  _16
REMARK    9  A    between atoms: _19  and  _21
REMARK   10  A    between atoms: _21  and  _22
REMARK   11  A    between atoms: _21  and  _24
REMARK   12  A    between atoms: _24  and  _25
REMARK   13  A    between atoms: _25  and  _26
REMARK   14  A    between atoms: _29  and  _31
REMARK   15  A    between atoms: _31  and  _32
REMARK   16  A    between atoms: _31  and  _34
REMARK   17  A    between atoms: _34  and  _35
REMARK   18  A    between atoms: _38  and  _40
REMARK   19  A    between atoms: _40  and  _41
REMARK   20  A    between atoms: _40  and  _43
REMARK   21  A    between atoms: _43  and  _44
REMARK   22  A    between atoms: _47  and  _49
REMARK   23  A    between atoms: _49  and  _50
REMARK   24  A    between atoms: _49  and  _52
REMARK   25  A    between atoms: _52  and  _53
REMARK   26  A    between atoms: _55  and  _57
REMARK   27  A    between atoms: _57  and  _58
REMARK   28  A    between atoms: _57  and  _60
REMARK   29  A    between atoms: _60  and  _61
REMARK   30  A    between atoms: _66  and  _68
REMARK   31  A    between atoms: _68  and  _69
REMARK   32  A    between atoms: _68  and  _71
REMARK   33  A    between atoms: _71  and  _72
REMARK   34  A    between atoms: _74  and  _76
REMARK   35  A    between atoms: _76  and  _77
REMARK   36  A    between atoms: _76  and  _79
REMARK   37  A    between atoms: _79  and  _80
REMARK   38  A    between atoms: _82  and  _84
REMARK   39  A    between atoms: _84  and  _85
REMARK   40  A    between atoms: _84  and  _87
REMARK   41  A    between atoms: _87  and  _88
REMARK   42  A    between atoms: _91  and  _93
REMARK   43  A    between atoms: _93  and  _94
REMARK   44  A    between atoms: _97  and  _99
REMARK   45  A    between atoms: _99  and  _100
REMARK   46  A    between atoms: _99  and  _102
REMARK   47  A    between atoms: _102  and  _103
REMARK   48  A    between atoms: _106  and  _108
REMARK   49  A    between atoms: _108  and  _109
REMARK   50  A    between atoms: _108  and  _111
REMARK   51  A    between atoms: _111  and  _112
REMARK   52  A    between atoms: _115  and  _117
REMARK   53  A    between atoms: _117  and  _118
REMARK   54  A    between atoms: _117  and  _120
REMARK   55  A    between atoms: _120  and  _121
REMARK   56  A    between atoms: _121  and  _122
REMARK   57  A    between atoms: _122  and  _123
REMARK   58  A    between atoms: _123  and  _124
REMARK   59  A    between atoms: _128  and  _130
REMARK   60  A    between atoms: _130  and  _131
REMARK   61  A    between atoms: _130  and  _133
REMARK   62  A    between atoms: _133  and  _134
REMARK   63  A    between atoms: _137  and  _139
REMARK   64  A    between atoms: _139  and  _140
REMARK   65  A    between atoms: _139  and  _142
REMARK   66  A    between atoms: _142  and  _143
REMARK   67  A    between atoms: _143  and  _144
REMARK   68  A    between atoms: _147  and  _149
REMARK   69  A    between atoms: _149  and  _150
REMARK   70  A    between atoms: _149  and  _152
REMARK   71  A    between atoms: _152  and  _153
REMARK   72  A    between atoms: _156  and  _158
REMARK   73  A    between atoms: _158  and  _159
REMARK   74  A    between atoms: _158  and  _161
REMARK   75  A    between atoms: _161  and  _162
REMARK   76  A    between atoms: _165  and  _167
REMARK   77  A    between atoms: _167  and  _168
REMARK   78  A    between atoms: _167  and  _170
REMARK   79  A    between atoms: _173  and  _175
REMARK   80  A    between atoms: _175  and  _176
REMARK   81  A    between atoms: _175  and  _178
REMARK   82  A    between atoms: _178  and  _179
REMARK   83  A    between atoms: _182  and  _184
REMARK   84  A    between atoms: _184  and  _185
REMARK   85  A    between atoms: _184  and  _187
REMARK   86  A    between atoms: _187  and  _188
REMARK   87  A    between atoms: _191  and  _193
REMARK   88  A    between atoms: _193  and  _194
REMARK   89  A    between atoms: _196  and  _198
REMARK   90  A    between atoms: _198  and  _199
REMARK   91  A    between atoms: _198  and  _201
REMARK   92  A    between atoms: _201  and  _202
REMARK   93  A    between atoms: _205  and  _207
REMARK   94  A    between atoms: _207  and  _208
REMARK   95  A    between atoms: _210  and  _212
REMARK   96  A    between atoms: _212  and  _213
REMARK   97  A    between atoms: _212  and  _215
REMARK   98  A    between atoms: _215  and  _216
REMARK   99  A    between atoms: _216  and  _217
REMARK  100  A    between atoms: _219  and  _221
REMARK  101  A    between atoms: _221  and  _222
REMARK  102  A    between atoms: _221  and  _224
REMARK  103  A    between atoms: _224  and  _225
REMARK  104  A    between atoms: _228  and  _230
REMARK  105  A    between atoms: _230  and  _231
REMARK  106  A    between atoms: _230  and  _233
REMARK  107  A    between atoms: _233  and  _234
REMARK  108  A    between atoms: _237  and  _239
REMARK  109  A    between atoms: _239  and  _240
REMARK  110  A    between atoms: _239  and  _242
REMARK  111  A    between atoms: _242  and  _243
REMARK  112  A    between atoms: _246  and  _248
REMARK  113  A    between atoms: _248  and  _249
REMARK  114  A    between atoms: _248  and  _251
REMARK  115  A    between atoms: _251  and  _252
REMARK  116  A    between atoms: _257  and  _259
REMARK  117  A    between atoms: _259  and  _260
REMARK  118  A    between atoms: _259  and  _262
REMARK  119  A    between atoms: _262  and  _263
REMARK  120  A    between atoms: _268  and  _270
REMARK  121  A    between atoms: _270  and  _271
REMARK  122  A    between atoms: _270  and  _273
REMARK  123  A    between atoms: _273  and  _274
REMARK  124  A    between atoms: _277  and  _279
REMARK  125  A    between atoms: _279  and  _280
REMARK  126  A    between atoms: _282  and  _284
REMARK  127  A    between atoms: _284  and  _285
REMARK  128  A    between atoms: _284  and  _287
REMARK  129  A    between atoms: _287  and  _288
REMARK  130  A    between atoms: _291  and  _293
REMARK  131  A    between atoms: _293  and  _294
REMARK  132  A    between atoms: _293  and  _296
REMARK  133  A    between atoms: _296  and  _297
REMARK  134  A    between atoms: _300  and  _302
REMARK  135  A    between atoms: _302  and  _303
REMARK  136  A    between atoms: _306  and  _308
REMARK  137  A    between atoms: _308  and  _309
REMARK  138  A    between atoms: _308  and  _311
REMARK  139  A    between atoms: _311  and  _312
REMARK  140  A    between atoms: _312  and  _313
REMARK  141  A    between atoms: _313  and  _314
REMARK  142  A    between atoms: _314  and  _315
REMARK  143  A    between atoms: _319  and  _321
REMARK  144  A    between atoms: _321  and  _322
REMARK  145  A    between atoms: _321  and  _324
REMARK  146  A    between atoms: _324  and  _325
REMARK  147  A    between atoms: _327  and  _329
REMARK  148  A    between atoms: _329  and  _330
REMARK  149  A    between atoms: _332  and  _334
REMARK  150  A    between atoms: _334  and  _335
REMARK  151  A    between atoms: _334  and  _337
REMARK  152  A    between atoms: _337  and  _338
REMARK  153  A    between atoms: _341  and  _343
REMARK  154  A    between atoms: _343  and  _344
REMARK  155  A    between atoms: _343  and  _346
REMARK  156  A    between atoms: _346  and  _347
REMARK  157  A    between atoms: _350  and  _352
REMARK  158  A    between atoms: _352  and  _353
REMARK  159  A    between atoms: _355  and  _357
REMARK  160  A    between atoms: _357  and  _358
REMARK  161  A    between atoms: _357  and  _360
REMARK  162  A    between atoms: _360  and  _361
REMARK  163  A    between atoms: _367  and  _369
REMARK  164  A    between atoms: _369  and  _370
REMARK  165  A    between atoms: _372  and  _374
REMARK  166  A    between atoms: _374  and  _375
REMARK  167  A    between atoms: _374  and  _377
REMARK  168  A    between atoms: _380  and  _382
REMARK  169  A    between atoms: _382  and  _383
REMARK  170  A    between atoms: _385  and  _387
REMARK  171  A    between atoms: _387  and  _388
REMARK  172  A    between atoms: _387  and  _390
REMARK  173  A    between atoms: _390  and  _391
REMARK  174  A    between atoms: _397  and  _399
REMARK  175  A    between atoms: _399  and  _400
REMARK  176  A    between atoms: _399  and  _402
REMARK  177  A    between atoms: _402  and  _403
REMARK  178  A    between atoms: _408  and  _409
REMARK  179  A    between atoms: _411  and  _413
REMARK  180  A    between atoms: _413  and  _414
REMARK  181  A    between atoms: _413  and  _416
REMARK  182  A    between atoms: _416  and  _417
REMARK  183  A    between atoms: _419  and  _421
REMARK  184  A    between atoms: _421  and  _422
REMARK  185  A    between atoms: _425  and  _427
REMARK  186  A    between atoms: _427  and  _428
REMARK  187  A    between atoms: _427  and  _430
REMARK  188  A    between atoms: _433  and  _435
REMARK  189  A    between atoms: _435  and  _436
REMARK  190  A    between atoms: _435  and  _438
REMARK  191  A    between atoms: _438  and  _439
REMARK  192  A    between atoms: _442  and  _444
REMARK  193  A    between atoms: _444  and  _445
REMARK  194  A    between atoms: _444  and  _447
REMARK  195  A    between atoms: _447  and  _448
REMARK  196  A    between atoms: _451  and  _453
REMARK  197  A    between atoms: _453  and  _454
REMARK  198  A    between atoms: _453  and  _456
REMARK  199  A    between atoms: _456  and  _457
REMARK  200  A    between atoms: _457  and  _458
REMARK  201  A    between atoms: _458  and  _459
REMARK  202  A    between atoms: _459  and  _460
REMARK  203  A    between atoms: _464  and  _466
REMARK  204  A    between atoms: _466  and  _467
REMARK  205  A    between atoms: _466  and  _469
REMARK  206  A    between atoms: _469  and  _470
REMARK  207  A    between atoms: _475  and  _477
REMARK  208  A    between atoms: _477  and  _478
REMARK  209  A    between atoms: _480  and  _482
REMARK  210  A    between atoms: _482  and  _483
REMARK  211  A    between atoms: _482  and  _485
REMARK  212  A    between atoms: _485  and  _486
REMARK  213  A    between atoms: _489  and  _491
REMARK  214  A    between atoms: _491  and  _492
REMARK  215  A    between atoms: _491  and  _494
REMARK  216  A    between atoms: _494  and  _495
REMARK  217  A    between atoms: _495  and  _496
REMARK  218  A    between atoms: _496  and  _497
REMARK  219  A    between atoms: _497  and  _498
REMARK  220  A    between atoms: _502  and  _504
REMARK  221  A    between atoms: _504  and  _505
REMARK  222  A    between atoms: _504  and  _507
REMARK  223  A    between atoms: _510  and  _512
REMARK  224  A    between atoms: _512  and  _513
REMARK  225  A    between atoms: _512  and  _515
REMARK  226  A    between atoms: _515  and  _516
REMARK  227  A    between atoms: _516  and  _517
REMARK  228  A    between atoms: _517  and  _518
REMARK  229  A    between atoms: _518  and  _519
REMARK                            x       y       z     vdW  Elec       q    Type
REMARK                         _______ _______ _______ _____ _____    ______ ____
ROOT
ATOM      1  CA  PHE A   5      15.579  28.071   9.108  0.00  0.00    +0.153 C 
ENDROOT
BRANCH   1   3
ATOM      2  C   GLY A   4      14.268  26.455   7.842  0.00  0.00    +0.243 C 
ATOM      3  N   PHE A   5      15.376  26.747   8.513  0.00  0.00    -0.297 N 
ATOM      4  H   PHE A   5      16.114  26.022   8.618  0.00  0.00    +0.150 HD
ATOM      5  O   GLY A   4      13.348  27.250   7.699  0.00  0.00    -0.273 OA
BRANCH   2   6
ATOM      6  CA  GLY A   4      14.156  25.063   7.253  0.00  0.00    +0.176 C 
BRANCH   6   8
ATOM      7  C   VAL A   3      16.310  24.949   6.162  0.00  0.00    +0.241 C 
ATOM      8  N   GLY A   4      15.427  24.421   7.002  0.00  0.00    -0.295 N 
ATOM      9  H   GLY A   4      15.654  23.530   7.488  0.00  0.00    +0.150 HD
ATOM     10  O   VAL A   3      16.125  26.016   5.577  0.00  0.00    -0.273 OA
BRANCH   7  11
ATOM     11  CA  VAL A   3      17.613  24.164   5.986  0.00  0.00    +0.149 C 
BRANCH  11  14
ATOM     12  C   GLY A   2      18.358  22.077   7.002  0.00  0.00    +0.243 C 
ATOM     13  O   GLY A   2      19.340  22.625   7.509  0.00  0.00    -0.273 OA
ATOM     14  N   VAL A   3      17.480  22.731   6.251  0.00  0.00    -0.297 N 
ATOM     15  H   VAL A   3      16.678  22.212   5.841  0.00  0.00    +0.150 HD
BRANCH  12  16
ATOM     16  CA  GLY A   2      18.120  20.590   7.215  0.00  0.00    +0.176 C 
BRANCH  16  18
ATOM     17  C   PHE A   1      17.889  19.704   4.973  0.00  0.00    +0.239 C 
ATOM     18  N   GLY A   2      17.369  19.904   6.178  0.00  0.00    -0.296 N 
ATOM     19  H   GLY A   2      16.408  19.564   6.383  0.00  0.00    +0.150 HD
ATOM     20  O   PHE A   1      19.018  20.087   4.656  0.00  0.00    -0.274 OA
BRANCH  17  21
ATOM     21  CA  PHE A   1      17.008  18.951   3.977  0.00  0.00    +0.149 C 
BRANCH  21  22
ATOM     22  N   PHE A   1      15.645  18.752   4.461  0.00  0.00    -0.238 NA
ATOM     23  H   PHE A   1      15.001  19.567   4.509  0.00  0.00    +0.142 HD
ENDBRANCH  21  22
BRANCH  21  24
ATOM     24  CB  PHE A   1      16.974  19.683   2.635  0.00  0.00    +0.053 C 
BRANCH  24  25
ATOM     25  CG  PHE A   1      16.346  18.880   1.526  0.00  0.00    -0.020 A 
ATOM     26  CD2 PHE A   1      15.028  19.086   1.162  0.00  0.00    -0.004 A 
ATOM     27  CE2 PHE A   1      14.442  18.332   0.157  0.00  0.00    -0.000 A 
ATOM     28  CZ  PHE A   1      15.176  17.363  -0.498  0.00  0.00    -0.000 A 
ATOM     29  CE1 PHE A   1      16.493  17.149  -0.145  0.00  0.00    -0.000 A 
ATOM     30  CD1 PHE A   1      17.072  17.905   0.862  0.00  0.00    -0.004 A 
ENDBRANCH  24  25
ENDBRANCH  21  24
ENDBRANCH  17  21
ENDBRANCH  16  18
ENDBRANCH  12  16
ENDBRANCH  11  14
BRANCH  11  31
ATOM     31  CB  VAL A   3      18.161  24.419   4.570  0.00  0.00    +0.027 C 
ATOM     32  CG2 VAL A   3      19.676  24.204   4.563  0.00  0.00    +0.002 C 
ATOM     33  CG1 VAL A   3      17.484  23.491   3.571  0.00  0.00    +0.002 C 
ENDBRANCH  11  31
ENDBRANCH   7  11
ENDBRANCH   6   8
ENDBRANCH   2   6
ENDBRANCH   1   3
BRANCH   1  34
ATOM     34  C   PHE A   5      15.382  29.155   8.057  0.00  0.00    +0.241 C 
ATOM     35  O   PHE A   5      14.686  30.139   8.280  0.00  0.00    -0.273 OA
ATOM     36  N   TYR A   6      15.991  28.948   6.897  0.00  0.00    -0.297 N 
ATOM     37  H   TYR A   6      16.529  28.069   6.757  0.00  0.00    +0.150 HD
BRANCH  36  38
ATOM     38  CA  TYR A   6      15.927  29.914   5.820  0.00  0.00    +0.153 C 
BRANCH  38  39
ATOM     39  C   TYR A   6      14.527  30.230   5.294  0.00  0.00    +0.241 C 
ATOM     40  N   SER A   7      13.540  29.392   5.593  0.00  0.00    -0.295 N 
ATOM     41  H   SER A   7      13.736  28.540   6.156  0.00  0.00    +0.150 HD
ATOM     42  O   TYR A   6      14.342  31.242   4.628  0.00  0.00    -0.273 OA
BRANCH  40  43
ATOM     43  CA  SER A   7      12.177  29.666   5.131  0.00  0.00    +0.178 C 
BRANCH  43  44
ATOM     44  C   SER A   7      11.663  30.935   5.814  0.00  0.00    +0.243 C 
ATOM     45  N   ALA A   8      12.374  31.364   6.850  0.00  0.00    -0.298 N 
ATOM     46  H   ALA A   8      13.210  30.825   7.154  0.00  0.00    +0.150 HD
ATOM     47  O   SER A   7      10.663  31.526   5.407  0.00  0.00    -0.273 OA
BRANCH  45  48
ATOM     48  CA  ALA A   8      12.006  32.573   7.567  0.00  0.00    +0.137 C 
ATOM     49  CB  ALA A   8      13.008  32.845   8.672  0.00  0.00    +0.030 C 
BRANCH  48  50
ATOM     50  C   ALA A   8      11.991  33.736   6.588  0.00  0.00    +0.227 C 
ATOM     51  O   ALA A   8      11.227  34.689   6.743  0.00  0.00    -0.286 OA
ENDBRANCH  48  50
ENDBRANCH  45  48
ENDBRANCH  43  44
BRANCH  43  52
ATOM     52  CB  SER A   7      11.245  28.481   5.431  0.00  0.00    +0.166 C 
BRANCH  52  53
ATOM     53  OG  SER A   7      11.082  28.268   6.821  0.00  0.00    -0.380 OA
ATOM     54  H   SER A   7      11.963  28.078   7.230  0.00  0.00    +0.211 HD
ENDBRANCH  52  53
ENDBRANCH  43  52
ENDBRANCH  40  43
ENDBRANCH  38  39
BRANCH  38  55
ATOM     55  CB  TYR A   6      16.849  29.467   4.681  0.00  0.00    +0.055 C 
BRANCH  55  56
ATOM     56  CG  TYR A   6      18.299  29.370   5.119  0.00  0.00    -0.020 A 
ATOM     57  CD2 TYR A   6      19.035  30.514   5.403  0.00  0.00    -0.001 A 
ATOM     58  CE2 TYR A   6      20.324  30.426   5.917  0.00  0.00    +0.036 A 
ATOM     59  CZ  TYR A   6      20.880  29.186   6.139  0.00  0.00    +0.134 A 
ATOM     60  CE1 TYR A   6      20.172  28.039   5.851  0.00  0.00    +0.036 A 
ATOM     61  CD1 TYR A   6      18.893  28.136   5.345  0.00  0.00    -0.001 A 
BRANCH  59  62
ATOM     62  OH  TYR A   6      22.141  29.082   6.682  0.00  0.00    -0.506 OA
ATOM     63  HH  TYR A   6      22.512  29.988   6.829  0.00  0.00    +0.292 HD
ENDBRANCH  59  62
ENDBRANCH  55  56
ENDBRANCH  38  55
ENDBRANCH  36  38
ENDBRANCH   1  34
BRANCH   1  64
ATOM     64  CB  PHE A   5      16.995  28.196   9.686  0.00  0.00    +0.055 C 
BRANCH  64  65
ATOM     65  CG  PHE A   5      17.384  29.613  10.047  0.00  0.00    -0.020 A 
ATOM     66  CD2 PHE A   5      16.927  30.199  11.214  0.00  0.00    -0.004 A 
ATOM     67  CE2 PHE A   5      17.265  31.507  11.534  0.00  0.00    -0.000 A 
ATOM     68  CZ  PHE A   5      18.067  32.241  10.684  0.00  0.00    -0.000 A 
ATOM     69  CE1 PHE A   5      18.532  31.669   9.515  0.00  0.00    -0.000 A 
ATOM     70  CD1 PHE A   5      18.191  30.361   9.202  0.00  0.00    -0.004 A 
ENDBRANCH  64  65
ENDBRANCH   1  64
TORSDOF 26
REMARK  Name = ../refined-set-2016/2qg0/2qg0_pocket.pdb
REMARK  229 active torsions:
REMARK  status: ('A' for Active; 'I' for Inactive)
REMARK    1  A    between atoms: _1  and  _3
REMARK    2  A    between atoms: _3  and  _4
REMARK    3  A    between atoms: _3  and  _6
REMARK    4  A    between atoms: _6  and  _7
REMARK    5  A    between atoms: _10  and  _12
REMARK    6  A    between atoms: _12  and  _13
REMARK    7  A    between atoms: _12  and  _15
REMARK    8  A    between atoms: _15  and  _16
REMARK    9  A    between atoms: _19  and  _21
REMARK   10  A    between atoms: _21  and  _22
REMARK   11  A    between atoms: _21  and  _24
REMARK   12  A    between atoms: _24  and  _25
REMARK   13  A    between atoms: _25  and  _26
REMARK   14  A    between atoms: _29  and  _31
REMARK   15  A    between atoms: _31  and  _32
REMARK   16  A    between atoms: _31  and  _34
REMARK   17  A    between atoms: _34  and  _35
REMARK   18  A    between atoms: _38  and  _40
REMARK   19  A    between atoms: _40  and  _41
REMARK   20  A    between atoms: _40  and  _43
REMARK   21  A    between atoms: _43  and  _44
REMARK   22  A    between atoms: _47  and  _49
REMARK   23  A    between atoms: _49  and  _50
REMARK   24  A    between atoms: _49  and  _52
REMARK   25  A    between atoms: _52  and  _53
REMARK   26  A    between atoms: _55  and  _57
REMARK   27  A    between atoms: _57  and  _58
REMARK   28  A    between atoms: _57  and  _60
REMARK   29  A    between atoms: _60  and  _61
REMARK   30  A    between atoms: _66  and  _68
REMARK   31  A    between atoms: _68  and  _69
REMARK   32  A    between atoms: _68  and  _71
REMARK   33  A    between atoms: _71  and  _72
REMARK   34  A    between atoms: _74  and  _76
REMARK   35  A    between atoms: _76  and  _77
REMARK   36  A    between atoms: _76  and  _79
REMARK   37  A    between atoms: _79  and  _80
REMARK   38  A    between atoms: _82  and  _84
REMARK   39  A    between atoms: _84  and  _85
REMARK   40  A    between atoms: _84  and  _87
REMARK   41  A    between atoms: _87  and  _88
REMARK   42  A    between atoms: _91  and  _93
REMARK   43  A    between atoms: _93  and  _94
REMARK   44  A    between atoms: _97  and  _99
REMARK   45  A    between atoms: _99  and  _100
REMARK   46  A    between atoms: _99  and  _102
REMARK   47  A    between atoms: _102  and  _103
REMARK   48  A    between atoms: _106  and  _108
REMARK   49  A    between atoms: _108  and  _109
REMARK   50  A    between atoms: _108  and  _111
REMARK   51  A    between atoms: _111  and  _112
REMARK   52  A    between atoms: _115  and  _117
REMARK   53  A    between atoms: _117  and  _118
REMARK   54  A    between atoms: _117  and  _120
REMARK   55  A    between atoms: _120  and  _121
REMARK   56  A    between atoms: _121  and  _122
REMARK   57  A    between atoms: _122  and  _123
REMARK   58  A    between atoms: _123  and  _124
REMARK   59  A    between atoms: _128  and  _130
REMARK   60  A    between atoms: _130  and  _131
REMARK   61  A    between atoms: _130  and  _133
REMARK   62  A    between atoms: _133  and  _134
REMARK   63  A    between atoms: _137  and  _139
REMARK   64  A    between atoms: _139  and  _140
REMARK   65  A    between atoms: _139  and  _142
REMARK   66  A    between atoms: _142  and  _143
REMARK   67  A    between atoms: _143  and  _144
REMARK   68  A    between atoms: _147  and  _149
REMARK   69  A    between atoms: _149  and  _150
REMARK   70  A    between atoms: _149  and  _152
REMARK   71  A    between atoms: _152  and  _153
REMARK   72  A    between atoms: _156  and  _158
REMARK   73  A    between atoms: _158  and  _159
REMARK   74  A    between atoms: _158  and  _161
REMARK   75  A    between atoms: _161  and  _162
REMARK   76  A    between atoms: _165  and  _167
REMARK   77  A    between atoms: _167  and  _168
REMARK   78  A    between atoms: _167  and  _170
REMARK   79  A    between atoms: _173  and  _175
REMARK   80  A    between atoms: _175  and  _176
REMARK   81  A    between atoms: _175  and  _178
REMARK   82  A    between atoms: _178  and  _179
REMARK   83  A    between atoms: _182  and  _184
REMARK   84  A    between atoms: _184  and  _185
REMARK   85  A    between atoms: _184  and  _187
REMARK   86  A    between atoms: _187  and  _188
REMARK   87  A    between atoms: _191  and  _193
REMARK   88  A    between atoms: _193  and  _194
REMARK   89  A    between atoms: _196  and  _198
REMARK   90  A    between atoms: _198  and  _199
REMARK   91  A    between atoms: _198  and  _201
REMARK   92  A    between atoms: _201  and  _202
REMARK   93  A    between atoms: _205  and  _207
REMARK   94  A    between atoms: _207  and  _208
REMARK   95  A    between atoms: _210  and  _212
REMARK   96  A    between atoms: _212  and  _213
REMARK   97  A    between atoms: _212  and  _215
REMARK   98  A    between atoms: _215  and  _216
REMARK   99  A    between atoms: _216  and  _217
REMARK  100  A    between atoms: _219  and  _221
REMARK  101  A    between atoms: _221  and  _222
REMARK  102  A    between atoms: _221  and  _224
REMARK  103  A    between atoms: _224  and  _225
REMARK  104  A    between atoms: _228  and  _230
REMARK  105  A    between atoms: _230  and  _231
REMARK  106  A    between atoms: _230  and  _233
REMARK  107  A    between atoms: _233  and  _234
REMARK  108  A    between atoms: _237  and  _239
REMARK  109  A    between atoms: _239  and  _240
REMARK  110  A    between atoms: _239  and  _242
REMARK  111  A    between atoms: _242  and  _243
REMARK  112  A    between atoms: _246  and  _248
REMARK  113  A    between atoms: _248  and  _249
REMARK  114  A    between atoms: _248  and  _251
REMARK  115  A    between atoms: _251  and  _252
REMARK  116  A    between atoms: _257  and  _259
REMARK  117  A    between atoms: _259  and  _260
REMARK  118  A    between atoms: _259  and  _262
REMARK  119  A    between atoms: _262  and  _263
REMARK  120  A    between atoms: _268  and  _270
REMARK  121  A    between atoms: _270  and  _271
REMARK  122  A    between atoms: _270  and  _273
REMARK  123  A    between atoms: _273  and  _274
REMARK  124  A    between atoms: _277  and  _279
REMARK  125  A    between atoms: _279  and  _280
REMARK  126  A    between atoms: _282  and  _284
REMARK  127  A    between atoms: _284  and  _285
REMARK  128  A    between atoms: _284  and  _287
REMARK  129  A    between atoms: _287  and  _288
REMARK  130  A    between atoms: _291  and  _293
REMARK  131  A    between atoms: _293  and  _294
REMARK  132  A    between atoms: _293  and  _296
REMARK  133  A    between atoms: _296  and  _297
REMARK  134  A    between atoms: _300  and  _302
REMARK  135  A    between atoms: _302  and  _303
REMARK  136  A    between atoms: _306  and  _308
REMARK  137  A    between atoms: _308  and  _309
REMARK  138  A    between atoms: _308  and  _311
REMARK  139  A    between atoms: _311  and  _312
REMARK  140  A    between atoms: _312  and  _313
REMARK  141  A    between atoms: _313  and  _314
REMARK  142  A    between atoms: _314  and  _315
REMARK  143  A    between atoms: _319  and  _321
REMARK  144  A    between atoms: _321  and  _322
REMARK  145  A    between atoms: _321  and  _324
REMARK  146  A    between atoms: _324  and  _325
REMARK  147  A    between atoms: _327  and  _329
REMARK  148  A    between atoms: _329  and  _330
REMARK  149  A    between atoms: _332  and  _334
REMARK  150  A    between atoms: _334  and  _335
REMARK  151  A    between atoms: _334  and  _337
REMARK  152  A    between atoms: _337  and  _338
REMARK  153  A    between atoms: _341  and  _343
REMARK  154  A    between atoms: _343  and  _344
REMARK  155  A    between atoms: _343  and  _346
REMARK  156  A    between atoms: _346  and  _347
REMARK  157  A    between atoms: _350  and  _352
REMARK  158  A    between atoms: _352  and  _353
REMARK  159  A    between atoms: _355  and  _357
REMARK  160  A    between atoms: _357  and  _358
REMARK  161  A    between atoms: _357  and  _360
REMARK  162  A    between atoms: _360  and  _361
REMARK  163  A    between atoms: _367  and  _369
REMARK  164  A    between atoms: _369  and  _370
REMARK  165  A    between atoms: _372  and  _374
REMARK  166  A    between atoms: _374  and  _375
REMARK  167  A    between atoms: _374  and  _377
REMARK  168  A    between atoms: _380  and  _382
REMARK  169  A    between atoms: _382  and  _383
REMARK  170  A    between atoms: _385  and  _387
REMARK  171  A    between atoms: _387  and  _388
REMARK  172  A    between atoms: _387  and  _390
REMARK  173  A    between atoms: _390  and  _391
REMARK  174  A    between atoms: _397  and  _399
REMARK  175  A    between atoms: _399  and  _400
REMARK  176  A    between atoms: _399  and  _402
REMARK  177  A    between atoms: _402  and  _403
REMARK  178  A    between atoms: _408  and  _409
REMARK  179  A    between atoms: _411  and  _413
REMARK  180  A    between atoms: _413  and  _414
REMARK  181  A    between atoms: _413  and  _416
REMARK  182  A    between atoms: _416  and  _417
REMARK  183  A    between atoms: _419  and  _421
REMARK  184  A    between atoms: _421  and  _422
REMARK  185  A    between atoms: _425  and  _427
REMARK  186  A    between atoms: _427  and  _428
REMARK  187  A    between atoms: _427  and  _430
REMARK  188  A    between atoms: _433  and  _435
REMARK  189  A    between atoms: _435  and  _436
REMARK  190  A    between atoms: _435  and  _438
REMARK  191  A    between atoms: _438  and  _439
REMARK  192  A    between atoms: _442  and  _444
REMARK  193  A    between atoms: _444  and  _445
REMARK  194  A    between atoms: _444  and  _447
REMARK  195  A    between atoms: _447  and  _448
REMARK  196  A    between atoms: _451  and  _453
REMARK  197  A    between atoms: _453  and  _454
REMARK  198  A    between atoms: _453  and  _456
REMARK  199  A    between atoms: _456  and  _457
REMARK  200  A    between atoms: _457  and  _458
REMARK  201  A    between atoms: _458  and  _459
REMARK  202  A    between atoms: _459  and  _460
REMARK  203  A    between atoms: _464  and  _466
REMARK  204  A    between atoms: _466  and  _467
REMARK  205  A    between atoms: _466  and  _469
REMARK  206  A    between atoms: _469  and  _470
REMARK  207  A    between atoms: _475  and  _477
REMARK  208  A    between atoms: _477  and  _478
REMARK  209  A    between atoms: _480  and  _482
REMARK  210  A    between atoms: _482  and  _483
REMARK  211  A    between atoms: _482  and  _485
REMARK  212  A    between atoms: _485  and  _486
REMARK  213  A    between atoms: _489  and  _491
REMARK  214  A    between atoms: _491  and  _492
REMARK  215  A    between atoms: _491  and  _494
REMARK  216  A    between atoms: _494  and  _495
REMARK  217  A    between atoms: _495  and  _496
REMARK  218  A    between atoms: _496  and  _497
REMARK  219  A    between atoms: _497  and  _498
REMARK  220  A    between atoms: _502  and  _504
REMARK  221  A    between atoms: _504  and  _505
REMARK  222  A    between atoms: _504  and  _507
REMARK  223  A    between atoms: _510  and  _512
REMARK  224  A    between atoms: _512  and  _513
REMARK  225  A    between atoms: _512  and  _515
REMARK  226  A    between atoms: _515  and  _516
REMARK  227  A    between atoms: _516  and  _517
REMARK  228  A    between atoms: _517  and  _518
REMARK  229  A    between atoms: _518  and  _519
REMARK                            x       y       z     vdW  Elec       q    Type
REMARK                         _______ _______ _______ _____ _____    ______ ____
ROOT
ATOM      1  C   THR A   3      22.256  32.427  22.471  0.00  0.00    +0.243 C 
ATOM      2  N   LYS A   4      22.005  31.539  23.425  0.00  0.00    -0.297 N 
ATOM      3  H   LYS A   4      21.147  30.956  23.353  0.00  0.00    +0.150 HD
ATOM      4  O   THR A   3      23.228  33.182  22.486  0.00  0.00    -0.273 OA
ENDROOT
BRANCH   2   5
ATOM      5  CA  LYS A   4      22.887  31.350  24.569  0.00  0.00    +0.149 C 
BRANCH   5   6
ATOM      6  C   LYS A   4      23.045  29.860  24.826  0.00  0.00    +0.241 C 
ATOM      7  O   LYS A   4      22.073  29.163  25.100  0.00  0.00    -0.273 OA
ATOM      8  N   HIS A   5      24.280  29.379  24.731  0.00  0.00    -0.298 N 
ATOM      9  H   HIS A   5      25.055  30.028  24.488  0.00  0.00    +0.150 HD
BRANCH   8  10
ATOM     10  CA  HIS A   5      24.584  27.975  24.956  0.00  0.00    +0.143 C 
BRANCH  10  11
ATOM     11  C   HIS A   5      25.338  27.877  26.280  0.00  0.00    +0.227 C 
ATOM     12  O   HIS A   5      26.087  28.783  26.635  0.00  0.00    -0.286 OA
ENDBRANCH  10  11
BRANCH  10  13
ATOM     13  CB  HIS A   5      25.450  27.450  23.803  0.00  0.00    +0.075 C 
BRANCH  13  14
ATOM     14  CG  HIS A   5      25.725  25.981  23.861  0.00  0.00    +0.082 A 
ATOM     15  ND1 HIS A   5      26.451  25.400  24.877  0.00  0.00    -0.227 NA
ATOM     16  CE1 HIS A   5      26.554  24.102  24.655  0.00  0.00    +0.199 A 
ATOM     17  NE2 HIS A   5      25.920  23.820  23.531  0.00  0.00    -0.221 NA
ATOM     18  CD2 HIS A   5      25.391  24.978  23.014  0.00  0.00    +0.115 A 
ENDBRANCH  13  14
ENDBRANCH  10  13
ENDBRANCH   8  10
ENDBRANCH   5   6
BRANCH   5  19
ATOM     19  CB  LYS A   4      22.304  32.025  25.814  0.00  0.00    +0.029 C 
BRANCH  19  20
ATOM     20  CG  LYS A   4      23.116  31.789  27.078  0.00  0.00    +0.000 C 
BRANCH  20  21
ATOM     21  CD  LYS A   4      24.542  32.311  26.928  0.00  0.00    -0.024 C 
BRANCH  21  22
ATOM     22  CE  LYS A   4      25.333  32.174  28.232  0.00  0.00    -0.086 C 
BRANCH  22  23
ATOM     23  NZ  LYS A   4      25.616  30.755  28.620  0.00  0.00    +0.380 N 
ATOM     24  HZ1 LYS A   4      26.153  30.741  29.510  0.00  0.00    -0.089 HD
ATOM     25  HZ2 LYS A   4      24.718  30.246  28.748  0.00  0.00    -0.089 HD
ATOM     26  HZ3 LYS A   4      26.172  30.296  27.871  0.00  0.00    -0.089 HD
ENDBRANCH  22  23
ENDBRANCH  21  22
ENDBRANCH  20  21
ENDBRANCH  19  20
ENDBRANCH   5  19
ENDBRANCH   2   5
BRANCH   1  27
ATOM     27  CA  THR A   3      21.235  32.479  21.341  0.00  0.00    +0.176 C 
BRANCH  27  29
ATOM     28  C   ILE A   2      19.924  34.245  20.373  0.00  0.00    +0.241 C 
ATOM     29  N   THR A   3      21.106  33.812  20.793  0.00  0.00    -0.295 N 
ATOM     30  H   THR A   3      21.939  34.431  20.728  0.00  0.00    +0.150 HD
ATOM     31  O   ILE A   2      18.903  33.558  20.439  0.00  0.00    -0.273 OA
BRANCH  28  32
ATOM     32  CA  ILE A   2      19.873  35.643  19.774  0.00  0.00    +0.148 C 
BRANCH  32  34
ATOM     33  C   VAL A   1      19.787  35.555  17.350  0.00  0.00    +0.238 C 
ATOM     34  N   ILE A   2      19.166  35.459  18.516  0.00  0.00    -0.297 N 
ATOM     35  H   ILE A   2      18.148  35.247  18.533  0.00  0.00    +0.150 HD
ATOM     36  O   VAL A   1      20.977  35.825  17.247  0.00  0.00    -0.274 OA
BRANCH  33  37
ATOM     37  CA  VAL A   1      18.933  35.328  16.118  0.00  0.00    +0.145 C 
BRANCH  37  38
ATOM     38  CB  VAL A   1      19.499  34.121  15.354  0.00  0.00    +0.025 C 
ATOM     39  CG2 VAL A   1      19.334  32.852  16.184  0.00  0.00    +0.002 C 
ATOM     40  CG1 VAL A   1      18.811  33.999  14.001  0.00  0.00    +0.002 C 
ENDBRANCH  37  38
BRANCH  37  41
ATOM     41  N   VAL A   1      18.955  36.533  15.301  0.00  0.00    -0.238 NA
ATOM     42  H   VAL A   1      19.867  36.915  14.978  0.00  0.00    +0.142 HD
ENDBRANCH  37  41
ENDBRANCH  33  37
ENDBRANCH  32  34
BRANCH  32  43
ATOM     43  CB  ILE A   2      19.083  36.590  20.702  0.00  0.00    +0.027 C 
ATOM     44  CG2 ILE A   2      19.883  36.883  21.954  0.00  0.00    +0.002 C 
BRANCH  43  45
ATOM     45  CG1 ILE A   2      18.737  37.883  19.957  0.00  0.00    +0.002 C 
ATOM     46  CD1 ILE A   2      19.938  38.722  19.576  0.00  0.00    +0.000 C 
ENDBRANCH  43  45
ENDBRANCH  32  43
ENDBRANCH  28  32
ENDBRANCH  27  29
BRANCH  27  47
ATOM     47  CB  THR A   3      21.640  31.485  20.230  0.00  0.00    +0.137 C 
ATOM     48  CG2 THR A   3      23.092  31.711  19.824  0.00  0.00    +0.034 C 
BRANCH  47  49
ATOM     49  OG1 THR A   3      21.474  30.143  20.692  0.00  0.00    -0.382 OA
ATOM     50  HG1 THR A   3      20.526  29.994  20.934  0.00  0.00    +0.210 HD
ENDBRANCH  47  49
ENDBRANCH  27  47
ENDBRANCH   1  27
TORSDOF 22
REMARK  Name = ../refined-set-2016/2qg0/2qg0_pocket.pdb
REMARK  229 active torsions:
REMARK  status: ('A' for Active; 'I' for Inactive)
REMARK    1  A    between atoms: _1  and  _3
REMARK    2  A    between atoms: _3  and  _4
REMARK    3  A    between atoms: _3  and  _6
REMARK    4  A    between atoms: _6  and  _7
REMARK    5  A    between atoms: _10  and  _12
REMARK    6  A    between atoms: _12  and  _13
REMARK    7  A    between atoms: _12  and  _15
REMARK    8  A    between atoms: _15  and  _16
REMARK    9  A    between atoms: _19  and  _21
REMARK   10  A    between atoms: _21  and  _22
REMARK   11  A    between atoms: _21  and  _24
REMARK   12  A    between atoms: _24  and  _25
REMARK   13  A    between atoms: _25  and  _26
REMARK   14  A    between atoms: _29  and  _31
REMARK   15  A    between atoms: _31  and  _32
REMARK   16  A    between atoms: _31  and  _34
REMARK   17  A    between atoms: _34  and  _35
REMARK   18  A    between atoms: _38  and  _40
REMARK   19  A    between atoms: _40  and  _41
REMARK   20  A    between atoms: _40  and  _43
REMARK   21  A    between atoms: _43  and  _44
REMARK   22  A    between atoms: _47  and  _49
REMARK   23  A    between atoms: _49  and  _50
REMARK   24  A    between atoms: _49  and  _52
REMARK   25  A    between atoms: _52  and  _53
REMARK   26  A    between atoms: _55  and  _57
REMARK   27  A    between atoms: _57  and  _58
REMARK   28  A    between atoms: _57  and  _60
REMARK   29  A    between atoms: _60  and  _61
REMARK   30  A    between atoms: _66  and  _68
REMARK   31  A    between atoms: _68  and  _69
REMARK   32  A    between atoms: _68  and  _71
REMARK   33  A    between atoms: _71  and  _72
REMARK   34  A    between atoms: _74  and  _76
REMARK   35  A    between atoms: _76  and  _77
REMARK   36  A    between atoms: _76  and  _79
REMARK   37  A    between atoms: _79  and  _80
REMARK   38  A    between atoms: _82  and  _84
REMARK   39  A    between atoms: _84  and  _85
REMARK   40  A    between atoms: _84  and  _87
REMARK   41  A    between atoms: _87  and  _88
REMARK   42  A    between atoms: _91  and  _93
REMARK   43  A    between atoms: _93  and  _94
REMARK   44  A    between atoms: _97  and  _99
REMARK   45  A    between atoms: _99  and  _100
REMARK   46  A    between atoms: _99  and  _102
REMARK   47  A    between atoms: _102  and  _103
REMARK   48  A    between atoms: _106  and  _108
REMARK   49  A    between atoms: _108  and  _109
REMARK   50  A    between atoms: _108  and  _111
REMARK   51  A    between atoms: _111  and  _112
REMARK   52  A    between atoms: _115  and  _117
REMARK   53  A    between atoms: _117  and  _118
REMARK   54  A    between atoms: _117  and  _120
REMARK   55  A    between atoms: _120  and  _121
REMARK   56  A    between atoms: _121  and  _122
REMARK   57  A    between atoms: _122  and  _123
REMARK   58  A    between atoms: _123  and  _124
REMARK   59  A    between atoms: _128  and  _130
REMARK   60  A    between atoms: _130  and  _131
REMARK   61  A    between atoms: _130  and  _133
REMARK   62  A    between atoms: _133  and  _134
REMARK   63  A    between atoms: _137  and  _139
REMARK   64  A    between atoms: _139  and  _140
REMARK   65  A    between atoms: _139  and  _142
REMARK   66  A    between atoms: _142  and  _143
REMARK   67  A    between atoms: _143  and  _144
REMARK   68  A    between atoms: _147  and  _149
REMARK   69  A    between atoms: _149  and  _150
REMARK   70  A    between atoms: _149  and  _152
REMARK   71  A    between atoms: _152  and  _153
REMARK   72  A    between atoms: _156  and  _158
REMARK   73  A    between atoms: _158  and  _159
REMARK   74  A    between atoms: _158  and  _161
REMARK   75  A    between atoms: _161  and  _162
REMARK   76  A    between atoms: _165  and  _167
REMARK   77  A    between atoms: _167  and  _168
REMARK   78  A    between atoms: _167  and  _170
REMARK   79  A    between atoms: _173  and  _175
REMARK   80  A    between atoms: _175  and  _176
REMARK   81  A    between atoms: _175  and  _178
REMARK   82  A    between atoms: _178  and  _179
REMARK   83  A    between atoms: _182  and  _184
REMARK   84  A    between atoms: _184  and  _185
REMARK   85  A    between atoms: _184  and  _187
REMARK   86  A    between atoms: _187  and  _188
REMARK   87  A    between atoms: _191  and  _193
REMARK   88  A    between atoms: _193  and  _194
REMARK   89  A    between atoms: _196  and  _198
REMARK   90  A    between atoms: _198  and  _199
REMARK   91  A    between atoms: _198  and  _201
REMARK   92  A    between atoms: _201  and  _202
REMARK   93  A    between atoms: _205  and  _207
REMARK   94  A    between atoms: _207  and  _208
REMARK   95  A    between atoms: _210  and  _212
REMARK   96  A    between atoms: _212  and  _213
REMARK   97  A    between atoms: _212  and  _215
REMARK   98  A    between atoms: _215  and  _216
REMARK   99  A    between atoms: _216  and  _217
REMARK  100  A    between atoms: _219  and  _221
REMARK  101  A    between atoms: _221  and  _222
REMARK  102  A    between atoms: _221  and  _224
REMARK  103  A    between atoms: _224  and  _225
REMARK  104  A    between atoms: _228  and  _230
REMARK  105  A    between atoms: _230  and  _231
REMARK  106  A    between atoms: _230  and  _233
REMARK  107  A    between atoms: _233  and  _234
REMARK  108  A    between atoms: _237  and  _239
REMARK  109  A    between atoms: _239  and  _240
REMARK  110  A    between atoms: _239  and  _242
REMARK  111  A    between atoms: _242  and  _243
REMARK  112  A    between atoms: _246  and  _248
REMARK  113  A    between atoms: _248  and  _249
REMARK  114  A    between atoms: _248  and  _251
REMARK  115  A    between atoms: _251  and  _252
REMARK  116  A    between atoms: _257  and  _259
REMARK  117  A    between atoms: _259  and  _260
REMARK  118  A    between atoms: _259  and  _262
REMARK  119  A    between atoms: _262  and  _263
REMARK  120  A    between atoms: _268  and  _270
REMARK  121  A    between atoms: _270  and  _271
REMARK  122  A    between atoms: _270  and  _273
REMARK  123  A    between atoms: _273  and  _274
REMARK  124  A    between atoms: _277  and  _279
REMARK  125  A    between atoms: _279  and  _280
REMARK  126  A    between atoms: _282  and  _284
REMARK  127  A    between atoms: _284  and  _285
REMARK  128  A    between atoms: _284  and  _287
REMARK  129  A    between atoms: _287  and  _288
REMARK  130  A    between atoms: _291  and  _293
REMARK  131  A    between atoms: _293  and  _294
REMARK  132  A    between atoms: _293  and  _296
REMARK  133  A    between atoms: _296  and  _297
REMARK  134  A    between atoms: _300  and  _302
REMARK  135  A    between atoms: _302  and  _303
REMARK  136  A    between atoms: _306  and  _308
REMARK  137  A    between atoms: _308  and  _309
REMARK  138  A    between atoms: _308  and  _311
REMARK  139  A    between atoms: _311  and  _312
REMARK  140  A    between atoms: _312  and  _313
REMARK  141  A    between atoms: _313  and  _314
REMARK  142  A    between atoms: _314  and  _315
REMARK  143  A    between atoms: _319  and  _321
REMARK  144  A    between atoms: _321  and  _322
REMARK  145  A    between atoms: _321  and  _324
REMARK  146  A    between atoms: _324  and  _325
REMARK  147  A    between atoms: _327  and  _329
REMARK  148  A    between atoms: _329  and  _330
REMARK  149  A    between atoms: _332  and  _334
REMARK  150  A    between atoms: _334  and  _335
REMARK  151  A    between atoms: _334  and  _337
REMARK  152  A    between atoms: _337  and  _338
REMARK  153  A    between atoms: _341  and  _343
REMARK  154  A    between atoms: _343  and  _344
REMARK  155  A    between atoms: _343  and  _346
REMARK  156  A    between atoms: _346  and  _347
REMARK  157  A    between atoms: _350  and  _352
REMARK  158  A    between atoms: _352  and  _353
REMARK  159  A    between atoms: _355  and  _357
REMARK  160  A    between atoms: _357  and  _358
REMARK  161  A    between atoms: _357  and  _360
REMARK  162  A    between atoms: _360  and  _361
REMARK  163  A    between atoms: _367  and  _369
REMARK  164  A    between atoms: _369  and  _370
REMARK  165  A    between atoms: _372  and  _374
REMARK  166  A    between atoms: _374  and  _375
REMARK  167  A    between atoms: _374  and  _377
REMARK  168  A    between atoms: _380  and  _382
REMARK  169  A    between atoms: _382  and  _383
REMARK  170  A    between atoms: _385  and  _387
REMARK  171  A    between atoms: _387  and  _388
REMARK  172  A    between atoms: _387  and  _390
REMARK  173  A    between atoms: _390  and  _391
REMARK  174  A    between atoms: _397  and  _399
REMARK  175  A    between atoms: _399  and  _400
REMARK  176  A    between atoms: _399  and  _402
REMARK  177  A    between atoms: _402  and  _403
REMARK  178  A    between atoms: _408  and  _409
REMARK  179  A    between atoms: _411  and  _413
REMARK  180  A    between atoms: _413  and  _414
REMARK  181  A    between atoms: _413  and  _416
REMARK  182  A    between atoms: _416  and  _417
REMARK  183  A    between atoms: _419  and  _421
REMARK  184  A    between atoms: _421  and  _422
REMARK  185  A    between atoms: _425  and  _427
REMARK  186  A    between atoms: _427  and  _428
REMARK  187  A    between atoms: _427  and  _430
REMARK  188  A    between atoms: _433  and  _435
REMARK  189  A    between atoms: _435  and  _436
REMARK  190  A    between atoms: _435  and  _438
REMARK  191  A    between atoms: _438  and  _439
REMARK  192  A    between atoms: _442  and  _444
REMARK  193  A    between atoms: _444  and  _445
REMARK  194  A    between atoms: _444  and  _447
REMARK  195  A    between atoms: _447  and  _448
REMARK  196  A    between atoms: _451  and  _453
REMARK  197  A    between atoms: _453  and  _454
REMARK  198  A    between atoms: _453  and  _456
REMARK  199  A    between atoms: _456  and  _457
REMARK  200  A    between atoms: _457  and  _458
REMARK  201  A    between atoms: _458  and  _459
REMARK  202  A    between atoms: _459  and  _460
REMARK  203  A    between atoms: _464  and  _466
REMARK  204  A    between atoms: _466  and  _467
REMARK  205  A    between atoms: _466  and  _469
REMARK  206  A    between atoms: _469  and  _470
REMARK  207  A    between atoms: _475  and  _477
REMARK  208  A    between atoms: _477  and  _478
REMARK  209  A    between atoms: _480  and  _482
REMARK  210  A    between atoms: _482  and  _483
REMARK  211  A    between atoms: _482  and  _485
REMARK  212  A    between atoms: _485  and  _486
REMARK  213  A    between atoms: _489  and  _491
REMARK  214  A    between atoms: _491  and  _492
REMARK  215  A    between atoms: _491  and  _494
REMARK  216  A    between atoms: _494  and  _495
REMARK  217  A    between atoms: _495  and  _496
REMARK  218  A    between atoms: _496  and  _497
REMARK  219  A    between atoms: _497  and  _498
REMARK  220  A    between atoms: _502  and  _504
REMARK  221  A    between atoms: _504  and  _505
REMARK  222  A    between atoms: _504  and  _507
REMARK  223  A    between atoms: _510  and  _512
REMARK  224  A    between atoms: _512  and  _513
REMARK  225  A    between atoms: _512  and  _515
REMARK  226  A    between atoms: _515  and  _516
REMARK  227  A    between atoms: _516  and  _517
REMARK  228  A    between atoms: _517  and  _518
REMARK  229  A    between atoms: _518  and  _519
REMARK                            x       y       z     vdW  Elec       q    Type
REMARK                         _______ _______ _______ _____ _____    ______ ____
ROOT
ATOM      1  CA  LYS A   3      15.325  33.475  19.945  0.00  0.00    +0.149 C 
ENDROOT
BRANCH   1   4
ATOM      2  C   THR A   2      16.272  31.370  20.722  0.00  0.00    +0.243 C 
ATOM      3  O   THR A   2      15.166  30.887  20.960  0.00  0.00    -0.273 OA
ATOM      4  N   LYS A   3      16.446  32.597  20.247  0.00  0.00    -0.297 N 
ATOM      5  H   LYS A   3      17.414  32.942  20.085  0.00  0.00    +0.150 HD
BRANCH   2   6
ATOM      6  CA  THR A   2      17.537  30.566  20.963  0.00  0.00    +0.176 C 
BRANCH   6   9
ATOM      7  C   GLY A   1      18.459  29.645  23.005  0.00  0.00    +0.240 C 
ATOM      8  O   GLY A   1      19.580  30.091  22.761  0.00  0.00    -0.274 OA
ATOM      9  N   THR A   2      17.417  29.832  22.206  0.00  0.00    -0.295 N 
ATOM     10  H   THR A   2      16.492  29.442  22.478  0.00  0.00    +0.150 HD
BRANCH   7  11
ATOM     11  CA  GLY A   1      18.165  28.846  24.257  0.00  0.00    +0.169 C 
BRANCH  11  12
ATOM     12  N   GLY A   1      19.111  28.941  25.353  0.00  0.00    -0.236 NA
ATOM     13  H   GLY A   1      20.132  28.857  25.173  0.00  0.00    +0.142 HD
ENDBRANCH  11  12
ENDBRANCH   7  11
ENDBRANCH   6   9
BRANCH   6  14
ATOM     14  CB  THR A   2      17.742  29.591  19.779  0.00  0.00    +0.137 C 
ATOM     15  CG2 THR A   2      17.898  30.355  18.466  0.00  0.00    +0.034 C 
BRANCH  14  16
ATOM     16  OG1 THR A   2      18.915  28.799  20.014  0.00  0.00    -0.382 OA
ATOM     17  HG1 THR A   2      18.802  28.284  20.852  0.00  0.00    +0.210 HD
ENDBRANCH  14  16
ENDBRANCH   6  14
ENDBRANCH   2   6
ENDBRANCH   1   4
BRANCH   1  18
ATOM     18  C   LYS A   3      15.466  33.917  18.492  0.00  0.00    +0.241 C 
ATOM     19  O   LYS A   3      16.446  34.558  18.127  0.00  0.00    -0.273 OA
ATOM     20  N   VAL A   4      14.499  33.548  17.660  0.00  0.00    -0.298 N 
ATOM     21  H   VAL A   4      13.709  32.973  18.016  0.00  0.00    +0.150 HD
BRANCH  20  22
ATOM     22  CA  VAL A   4      14.529  33.937  16.257  0.00  0.00    +0.137 C 
BRANCH  22  23
ATOM     23  CB  VAL A   4      14.110  32.772  15.332  0.00  0.00    +0.026 C 
ATOM     24  CG2 VAL A   4      15.050  31.608  15.534  0.00  0.00    +0.002 C 
ATOM     25  CG1 VAL A   4      14.122  33.228  13.877  0.00  0.00    +0.002 C 
ENDBRANCH  22  23
BRANCH  22  26
ATOM     26  C   VAL A   4      13.554  35.087  16.092  0.00  0.00    +0.227 C 
ATOM     27  O   VAL A   4      12.349  34.920  16.261  0.00  0.00    -0.286 OA
ENDBRANCH  22  26
ENDBRANCH  20  22
ENDBRANCH   1  18
BRANCH   1  28
ATOM     28  CB  LYS A   3      15.360  34.687  20.879  0.00  0.00    +0.029 C 
BRANCH  28  29
ATOM     29  CG  LYS A   3      14.120  35.549  20.869  0.00  0.00    +0.000 C 
BRANCH  29  30
ATOM     30  CD  LYS A   3      14.063  36.405  22.130  0.00  0.00    -0.024 C 
BRANCH  30  31
ATOM     31  CE  LYS A   3      15.365  37.158  22.344  0.00  0.00    -0.086 C 
BRANCH  31  32
ATOM     32  NZ  LYS A   3      15.400  37.880  23.650  0.00  0.00    +0.380 N 
ATOM     33  HZ1 LYS A   3      15.294  37.196  24.426  0.00  0.00    -0.089 HD
ATOM     34  HZ2 LYS A   3      16.309  38.377  23.746  0.00  0.00    -0.089 HD
ATOM     35  HZ3 LYS A   3      14.622  38.569  23.685  0.00  0.00    -0.089 HD
ENDBRANCH  31  32
ENDBRANCH  30  31
ENDBRANCH  29  30
ENDBRANCH  28  29
ENDBRANCH   1  28
TORSDOF 16
REMARK  Name = ../refined-set-2016/2qg0/2qg0_pocket.pdb
REMARK  229 active torsions:
REMARK  status: ('A' for Active; 'I' for Inactive)
REMARK    1  A    between atoms: _1  and  _3
REMARK    2  A    between atoms: _3  and  _4
REMARK    3  A    between atoms: _3  and  _6
REMARK    4  A    between atoms: _6  and  _7
REMARK    5  A    between atoms: _10  and  _12
REMARK    6  A    between atoms: _12  and  _13
REMARK    7  A    between atoms: _12  and  _15
REMARK    8  A    between atoms: _15  and  _16
REMARK    9  A    between atoms: _19  and  _21
REMARK   10  A    between atoms: _21  and  _22
REMARK   11  A    between atoms: _21  and  _24
REMARK   12  A    between atoms: _24  and  _25
REMARK   13  A    between atoms: _25  and  _26
REMARK   14  A    between atoms: _29  and  _31
REMARK   15  A    between atoms: _31  and  _32
REMARK   16  A    between atoms: _31  and  _34
REMARK   17  A    between atoms: _34  and  _35
REMARK   18  A    between atoms: _38  and  _40
REMARK   19  A    between atoms: _40  and  _41
REMARK   20  A    between atoms: _40  and  _43
REMARK   21  A    between atoms: _43  and  _44
REMARK   22  A    between atoms: _47  and  _49
REMARK   23  A    between atoms: _49  and  _50
REMARK   24  A    between atoms: _49  and  _52
REMARK   25  A    between atoms: _52  and  _53
REMARK   26  A    between atoms: _55  and  _57
REMARK   27  A    between atoms: _57  and  _58
REMARK   28  A    between atoms: _57  and  _60
REMARK   29  A    between atoms: _60  and  _61
REMARK   30  A    between atoms: _66  and  _68
REMARK   31  A    between atoms: _68  and  _69
REMARK   32  A    between atoms: _68  and  _71
REMARK   33  A    between atoms: _71  and  _72
REMARK   34  A    between atoms: _74  and  _76
REMARK   35  A    between atoms: _76  and  _77
REMARK   36  A    between atoms: _76  and  _79
REMARK   37  A    between atoms: _79  and  _80
REMARK   38  A    between atoms: _82  and  _84
REMARK   39  A    between atoms: _84  and  _85
REMARK   40  A    between atoms: _84  and  _87
REMARK   41  A    between atoms: _87  and  _88
REMARK   42  A    between atoms: _91  and  _93
REMARK   43  A    between atoms: _93  and  _94
REMARK   44  A    between atoms: _97  and  _99
REMARK   45  A    between atoms: _99  and  _100
REMARK   46  A    between atoms: _99  and  _102
REMARK   47  A    between atoms: _102  and  _103
REMARK   48  A    between atoms: _106  and  _108
REMARK   49  A    between atoms: _108  and  _109
REMARK   50  A    between atoms: _108  and  _111
REMARK   51  A    between atoms: _111  and  _112
REMARK   52  A    between atoms: _115  and  _117
REMARK   53  A    between atoms: _117  and  _118
REMARK   54  A    between atoms: _117  and  _120
REMARK   55  A    between atoms: _120  and  _121
REMARK   56  A    between atoms: _121  and  _122
REMARK   57  A    between atoms: _122  and  _123
REMARK   58  A    between atoms: _123  and  _124
REMARK   59  A    between atoms: _128  and  _130
REMARK   60  A    between atoms: _130  and  _131
REMARK   61  A    between atoms: _130  and  _133
REMARK   62  A    between atoms: _133  and  _134
REMARK   63  A    between atoms: _137  and  _139
REMARK   64  A    between atoms: _139  and  _140
REMARK   65  A    between atoms: _139  and  _142
REMARK   66  A    between atoms: _142  and  _143
REMARK   67  A    between atoms: _143  and  _144
REMARK   68  A    between atoms: _147  and  _149
REMARK   69  A    between atoms: _149  and  _150
REMARK   70  A    between atoms: _149  and  _152
REMARK   71  A    between atoms: _152  and  _153
REMARK   72  A    between atoms: _156  and  _158
REMARK   73  A    between atoms: _158  and  _159
REMARK   74  A    between atoms: _158  and  _161
REMARK   75  A    between atoms: _161  and  _162
REMARK   76  A    between atoms: _165  and  _167
REMARK   77  A    between atoms: _167  and  _168
REMARK   78  A    between atoms: _167  and  _170
REMARK   79  A    between atoms: _173  and  _175
REMARK   80  A    between atoms: _175  and  _176
REMARK   81  A    between atoms: _175  and  _178
REMARK   82  A    between atoms: _178  and  _179
REMARK   83  A    between atoms: _182  and  _184
REMARK   84  A    between atoms: _184  and  _185
REMARK   85  A    between atoms: _184  and  _187
REMARK   86  A    between atoms: _187  and  _188
REMARK   87  A    between atoms: _191  and  _193
REMARK   88  A    between atoms: _193  and  _194
REMARK   89  A    between atoms: _196  and  _198
REMARK   90  A    between atoms: _198  and  _199
REMARK   91  A    between atoms: _198  and  _201
REMARK   92  A    between atoms: _201  and  _202
REMARK   93  A    between atoms: _205  and  _207
REMARK   94  A    between atoms: _207  and  _208
REMARK   95  A    between atoms: _210  and  _212
REMARK   96  A    between atoms: _212  and  _213
REMARK   97  A    between atoms: _212  and  _215
REMARK   98  A    between atoms: _215  and  _216
REMARK   99  A    between atoms: _216  and  _217
REMARK  100  A    between atoms: _219  and  _221
REMARK  101  A    between atoms: _221  and  _222
REMARK  102  A    between atoms: _221  and  _224
REMARK  103  A    between atoms: _224  and  _225
REMARK  104  A    between atoms: _228  and  _230
REMARK  105  A    between atoms: _230  and  _231
REMARK  106  A    between atoms: _230  and  _233
REMARK  107  A    between atoms: _233  and  _234
REMARK  108  A    between atoms: _237  and  _239
REMARK  109  A    between atoms: _239  and  _240
REMARK  110  A    between atoms: _239  and  _242
REMARK  111  A    between atoms: _242  and  _243
REMARK  112  A    between atoms: _246  and  _248
REMARK  113  A    between atoms: _248  and  _249
REMARK  114  A    between atoms: _248  and  _251
REMARK  115  A    between atoms: _251  and  _252
REMARK  116  A    between atoms: _257  and  _259
REMARK  117  A    between atoms: _259  and  _260
REMARK  118  A    between atoms: _259  and  _262
REMARK  119  A    between atoms: _262  and  _263
REMARK  120  A    between atoms: _268  and  _270
REMARK  121  A    between atoms: _270  and  _271
REMARK  122  A    between atoms: _270  and  _273
REMARK  123  A    between atoms: _273  and  _274
REMARK  124  A    between atoms: _277  and  _279
REMARK  125  A    between atoms: _279  and  _280
REMARK  126  A    between atoms: _282  and  _284
REMARK  127  A    between atoms: _284  and  _285
REMARK  128  A    between atoms: _284  and  _287
REMARK  129  A    between atoms: _287  and  _288
REMARK  130  A    between atoms: _291  and  _293
REMARK  131  A    between atoms: _293  and  _294
REMARK  132  A    between atoms: _293  and  _296
REMARK  133  A    between atoms: _296  and  _297
REMARK  134  A    between atoms: _300  and  _302
REMARK  135  A    between atoms: _302  and  _303
REMARK  136  A    between atoms: _306  and  _308
REMARK  137  A    between atoms: _308  and  _309
REMARK  138  A    between atoms: _308  and  _311
REMARK  139  A    between atoms: _311  and  _312
REMARK  140  A    between atoms: _312  and  _313
REMARK  141  A    between atoms: _313  and  _314
REMARK  142  A    between atoms: _314  and  _315
REMARK  143  A    between atoms: _319  and  _321
REMARK  144  A    between atoms: _321  and  _322
REMARK  145  A    between atoms: _321  and  _324
REMARK  146  A    between atoms: _324  and  _325
REMARK  147  A    between atoms: _327  and  _329
REMARK  148  A    between atoms: _329  and  _330
REMARK  149  A    between atoms: _332  and  _334
REMARK  150  A    between atoms: _334  and  _335
REMARK  151  A    between atoms: _334  and  _337
REMARK  152  A    between atoms: _337  and  _338
REMARK  153  A    between atoms: _341  and  _343
REMARK  154  A    between atoms: _343  and  _344
REMARK  155  A    between atoms: _343  and  _346
REMARK  156  A    between atoms: _346  and  _347
REMARK  157  A    between atoms: _350  and  _352
REMARK  158  A    between atoms: _352  and  _353
REMARK  159  A    between atoms: _355  and  _357
REMARK  160  A    between atoms: _357  and  _358
REMARK  161  A    between atoms: _357  and  _360
REMARK  162  A    between atoms: _360  and  _361
REMARK  163  A    between atoms: _367  and  _369
REMARK  164  A    between atoms: _369  and  _370
REMARK  165  A    between atoms: _372  and  _374
REMARK  166  A    between atoms: _374  and  _375
REMARK  167  A    between atoms: _374  and  _377
REMARK  168  A    between atoms: _380  and  _382
REMARK  169  A    between atoms: _382  and  _383
REMARK  170  A    between atoms: _385  and  _387
REMARK  171  A    between atoms: _387  and  _388
REMARK  172  A    between atoms: _387  and  _390
REMARK  173  A    between atoms: _390  and  _391
REMARK  174  A    between atoms: _397  and  _399
REMARK  175  A    between atoms: _399  and  _400
REMARK  176  A    between atoms: _399  and  _402
REMARK  177  A    between atoms: _402  and  _403
REMARK  178  A    between atoms: _408  and  _409
REMARK  179  A    between atoms: _411  and  _413
REMARK  180  A    between atoms: _413  and  _414
REMARK  181  A    between atoms: _413  and  _416
REMARK  182  A    between atoms: _416  and  _417
REMARK  183  A    between atoms: _419  and  _421
REMARK  184  A    between atoms: _421  and  _422
REMARK  185  A    between atoms: _425  and  _427
REMARK  186  A    between atoms: _427  and  _428
REMARK  187  A    between atoms: _427  and  _430
REMARK  188  A    between atoms: _433  and  _435
REMARK  189  A    between atoms: _435  and  _436
REMARK  190  A    between atoms: _435  and  _438
REMARK  191  A    between atoms: _438  and  _439
REMARK  192  A    between atoms: _442  and  _444
REMARK  193  A    between atoms: _444  and  _445
REMARK  194  A    between atoms: _444  and  _447
REMARK  195  A    between atoms: _447  and  _448
REMARK  196  A    between atoms: _451  and  _453
REMARK  197  A    between atoms: _453  and  _454
REMARK  198  A    between atoms: _453  and  _456
REMARK  199  A    between atoms: _456  and  _457
REMARK  200  A    between atoms: _457  and  _458
REMARK  201  A    between atoms: _458  and  _459
REMARK  202  A    between atoms: _459  and  _460
REMARK  203  A    between atoms: _464  and  _466
REMARK  204  A    between atoms: _466  and  _467
REMARK  205  A    between atoms: _466  and  _469
REMARK  206  A    between atoms: _469  and  _470
REMARK  207  A    between atoms: _475  and  _477
REMARK  208  A    between atoms: _477  and  _478
REMARK  209  A    between atoms: _480  and  _482
REMARK  210  A    between atoms: _482  and  _483
REMARK  211  A    between atoms: _482  and  _485
REMARK  212  A    between atoms: _485  and  _486
REMARK  213  A    between atoms: _489  and  _491
REMARK  214  A    between atoms: _491  and  _492
REMARK  215  A    between atoms: _491  and  _494
REMARK  216  A    between atoms: _494  and  _495
REMARK  217  A    between atoms: _495  and  _496
REMARK  218  A    between atoms: _496  and  _497
REMARK  219  A    between atoms: _497  and  _498
REMARK  220  A    between atoms: _502  and  _504
REMARK  221  A    between atoms: _504  and  _505
REMARK  222  A    between atoms: _504  and  _507
REMARK  223  A    between atoms: _510  and  _512
REMARK  224  A    between atoms: _512  and  _513
REMARK  225  A    between atoms: _512  and  _515
REMARK  226  A    between atoms: _515  and  _516
REMARK  227  A    between atoms: _516  and  _517
REMARK  228  A    between atoms: _517  and  _518
REMARK  229  A    between atoms: _518  and  _519
REMARK                            x       y       z     vdW  Elec       q    Type
REMARK                         _______ _______ _______ _____ _____    ______ ____
ROOT
ATOM      1  CG  LYS A   1      18.851  12.691  19.960  0.00  0.00    -0.000 C 
ENDROOT
BRANCH   1   2
ATOM      2  CB  LYS A   1      18.514  13.322  21.296  0.00  0.00    +0.025 C 
BRANCH   2   3
ATOM      3  CA  LYS A   1      17.401  12.605  22.065  0.00  0.00    +0.133 C 
BRANCH   3   4
ATOM      4  N   LYS A   1      17.879  11.309  22.542  0.00  0.00    -0.239 NA
ATOM      5  H   LYS A   1      18.621  10.804  22.016  0.00  0.00    +0.142 HD
ENDBRANCH   3   4
BRANCH   3   6
ATOM      6  C   LYS A   1      16.165  12.490  21.179  0.00  0.00    +0.224 C 
ATOM      7  O   LYS A   1      15.671  13.493  20.660  0.00  0.00    -0.287 OA
ENDBRANCH   3   6
ENDBRANCH   2   3
ENDBRANCH   1   2
BRANCH   1   8
ATOM      8  CD  LYS A   1      20.088  13.316  19.326  0.00  0.00    -0.024 C 
BRANCH   8   9
ATOM      9  CE  LYS A   1      19.958  14.820  19.159  0.00  0.00    -0.086 C 
BRANCH   9  10
ATOM     10  NZ  LYS A   1      20.065  15.557  20.446  0.00  0.00    +0.380 N 
ATOM     11  HZ1 LYS A   1      19.310  15.243  21.088  0.00  0.00    -0.089 HD
ATOM     12  HZ2 LYS A   1      20.991  15.365  20.878  0.00  0.00    -0.089 HD
ATOM     13  HZ3 LYS A   1      19.969  16.577  20.269  0.00  0.00    -0.089 HD
ENDBRANCH   9  10
ENDBRANCH   8   9
ENDBRANCH   1   8
TORSDOF 7
REMARK  Name = ../refined-set-2016/2qg0/2qg0_pocket.pdb
REMARK  229 active torsions:
REMARK  status: ('A' for Active; 'I' for Inactive)
REMARK    1  A    between atoms: _1  and  _3
REMARK    2  A    between atoms: _3  and  _4
REMARK    3  A    between atoms: _3  and  _6
REMARK    4  A    between atoms: _6  and  _7
REMARK    5  A    between atoms: _10  and  _12
REMARK    6  A    between atoms: _12  and  _13
REMARK    7  A    between atoms: _12  and  _15
REMARK    8  A    between atoms: _15  and  _16
REMARK    9  A    between atoms: _19  and  _21
REMARK   10  A    between atoms: _21  and  _22
REMARK   11  A    between atoms: _21  and  _24
REMARK   12  A    between atoms: _24  and  _25
REMARK   13  A    between atoms: _25  and  _26
REMARK   14  A    between atoms: _29  and  _31
REMARK   15  A    between atoms: _31  and  _32
REMARK   16  A    between atoms: _31  and  _34
REMARK   17  A    between atoms: _34  and  _35
REMARK   18  A    between atoms: _38  and  _40
REMARK   19  A    between atoms: _40  and  _41
REMARK   20  A    between atoms: _40  and  _43
REMARK   21  A    between atoms: _43  and  _44
REMARK   22  A    between atoms: _47  and  _49
REMARK   23  A    between atoms: _49  and  _50
REMARK   24  A    between atoms: _49  and  _52
REMARK   25  A    between atoms: _52  and  _53
REMARK   26  A    between atoms: _55  and  _57
REMARK   27  A    between atoms: _57  and  _58
REMARK   28  A    between atoms: _57  and  _60
REMARK   29  A    between atoms: _60  and  _61
REMARK   30  A    between atoms: _66  and  _68
REMARK   31  A    between atoms: _68  and  _69
REMARK   32  A    between atoms: _68  and  _71
REMARK   33  A    between atoms: _71  and  _72
REMARK   34  A    between atoms: _74  and  _76
REMARK   35  A    between atoms: _76  and  _77
REMARK   36  A    between atoms: _76  and  _79
REMARK   37  A    between atoms: _79  and  _80
REMARK   38  A    between atoms: _82  and  _84
REMARK   39  A    between atoms: _84  and  _85
REMARK   40  A    between atoms: _84  and  _87
REMARK   41  A    between atoms: _87  and  _88
REMARK   42  A    between atoms: _91  and  _93
REMARK   43  A    between atoms: _93  and  _94
REMARK   44  A    between atoms: _97  and  _99
REMARK   45  A    between atoms: _99  and  _100
REMARK   46  A    between atoms: _99  and  _102
REMARK   47  A    between atoms: _102  and  _103
REMARK   48  A    between atoms: _106  and  _108
REMARK   49  A    between atoms: _108  and  _109
REMARK   50  A    between atoms: _108  and  _111
REMARK   51  A    between atoms: _111  and  _112
REMARK   52  A    between atoms: _115  and  _117
REMARK   53  A    between atoms: _117  and  _118
REMARK   54  A    between atoms: _117  and  _120
REMARK   55  A    between atoms: _120  and  _121
REMARK   56  A    between atoms: _121  and  _122
REMARK   57  A    between atoms: _122  and  _123
REMARK   58  A    between atoms: _123  and  _124
REMARK   59  A    between atoms: _128  and  _130
REMARK   60  A    between atoms: _130  and  _131
REMARK   61  A    between atoms: _130  and  _133
REMARK   62  A    between atoms: _133  and  _134
REMARK   63  A    between atoms: _137  and  _139
REMARK   64  A    between atoms: _139  and  _140
REMARK   65  A    between atoms: _139  and  _142
REMARK   66  A    between atoms: _142  and  _143
REMARK   67  A    between atoms: _143  and  _144
REMARK   68  A    between atoms: _147  and  _149
REMARK   69  A    between atoms: _149  and  _150
REMARK   70  A    between atoms: _149  and  _152
REMARK   71  A    between atoms: _152  and  _153
REMARK   72  A    between atoms: _156  and  _158
REMARK   73  A    between atoms: _158  and  _159
REMARK   74  A    between atoms: _158  and  _161
REMARK   75  A    between atoms: _161  and  _162
REMARK   76  A    between atoms: _165  and  _167
REMARK   77  A    between atoms: _167  and  _168
REMARK   78  A    between atoms: _167  and  _170
REMARK   79  A    between atoms: _173  and  _175
REMARK   80  A    between atoms: _175  and  _176
REMARK   81  A    between atoms: _175  and  _178
REMARK   82  A    between atoms: _178  and  _179
REMARK   83  A    between atoms: _182  and  _184
REMARK   84  A    between atoms: _184  and  _185
REMARK   85  A    between atoms: _184  and  _187
REMARK   86  A    between atoms: _187  and  _188
REMARK   87  A    between atoms: _191  and  _193
REMARK   88  A    between atoms: _193  and  _194
REMARK   89  A    between atoms: _196  and  _198
REMARK   90  A    between atoms: _198  and  _199
REMARK   91  A    between atoms: _198  and  _201
REMARK   92  A    between atoms: _201  and  _202
REMARK   93  A    between atoms: _205  and  _207
REMARK   94  A    between atoms: _207  and  _208
REMARK   95  A    between atoms: _210  and  _212
REMARK   96  A    between atoms: _212  and  _213
REMARK   97  A    between atoms: _212  and  _215
REMARK   98  A    between atoms: _215  and  _216
REMARK   99  A    between atoms: _216  and  _217
REMARK  100  A    between atoms: _219  and  _221
REMARK  101  A    between atoms: _221  and  _222
REMARK  102  A    between atoms: _221  and  _224
REMARK  103  A    between atoms: _224  and  _225
REMARK  104  A    between atoms: _228  and  _230
REMARK  105  A    between atoms: _230  and  _231
REMARK  106  A    between atoms: _230  and  _233
REMARK  107  A    between atoms: _233  and  _234
REMARK  108  A    between atoms: _237  and  _239
REMARK  109  A    between atoms: _239  and  _240
REMARK  110  A    between atoms: _239  and  _242
REMARK  111  A    between atoms: _242  and  _243
REMARK  112  A    between atoms: _246  and  _248
REMARK  113  A    between atoms: _248  and  _249
REMARK  114  A    between atoms: _248  and  _251
REMARK  115  A    between atoms: _251  and  _252
REMARK  116  A    between atoms: _257  and  _259
REMARK  117  A    between atoms: _259  and  _260
REMARK  118  A    between atoms: _259  and  _262
REMARK  119  A    between atoms: _262  and  _263
REMARK  120  A    between atoms: _268  and  _270
REMARK  121  A    between atoms: _270  and  _271
REMARK  122  A    between atoms: _270  and  _273
REMARK  123  A    between atoms: _273  and  _274
REMARK  124  A    between atoms: _277  and  _279
REMARK  125  A    between atoms: _279  and  _280
REMARK  126  A    between atoms: _282  and  _284
REMARK  127  A    between atoms: _284  and  _285
REMARK  128  A    between atoms: _284  and  _287
REMARK  129  A    between atoms: _287  and  _288
REMARK  130  A    between atoms: _291  and  _293
REMARK  131  A    between atoms: _293  and  _294
REMARK  132  A    between atoms: _293  and  _296
REMARK  133  A    between atoms: _296  and  _297
REMARK  134  A    between atoms: _300  and  _302
REMARK  135  A    between atoms: _302  and  _303
REMARK  136  A    between atoms: _306  and  _308
REMARK  137  A    between atoms: _308  and  _309
REMARK  138  A    between atoms: _308  and  _311
REMARK  139  A    between atoms: _311  and  _312
REMARK  140  A    between atoms: _312  and  _313
REMARK  141  A    between atoms: _313  and  _314
REMARK  142  A    between atoms: _314  and  _315
REMARK  143  A    between atoms: _319  and  _321
REMARK  144  A    between atoms: _321  and  _322
REMARK  145  A    between atoms: _321  and  _324
REMARK  146  A    between atoms: _324  and  _325
REMARK  147  A    between atoms: _327  and  _329
REMARK  148  A    between atoms: _329  and  _330
REMARK  149  A    between atoms: _332  and  _334
REMARK  150  A    between atoms: _334  and  _335
REMARK  151  A    between atoms: _334  and  _337
REMARK  152  A    between atoms: _337  and  _338
REMARK  153  A    between atoms: _341  and  _343
REMARK  154  A    between atoms: _343  and  _344
REMARK  155  A    between atoms: _343  and  _346
REMARK  156  A    between atoms: _346  and  _347
REMARK  157  A    between atoms: _350  and  _352
REMARK  158  A    between atoms: _352  and  _353
REMARK  159  A    between atoms: _355  and  _357
REMARK  160  A    between atoms: _357  and  _358
REMARK  161  A    between atoms: _357  and  _360
REMARK  162  A    between atoms: _360  and  _361
REMARK  163  A    between atoms: _367  and  _369
REMARK  164  A    between atoms: _369  and  _370
REMARK  165  A    between atoms: _372  and  _374
REMARK  166  A    between atoms: _374  and  _375
REMARK  167  A    between atoms: _374  and  _377
REMARK  168  A    between atoms: _380  and  _382
REMARK  169  A    between atoms: _382  and  _383
REMARK  170  A    between atoms: _385  and  _387
REMARK  171  A    between atoms: _387  and  _388
REMARK  172  A    between atoms: _387  and  _390
REMARK  173  A    between atoms: _390  and  _391
REMARK  174  A    between atoms: _397  and  _399
REMARK  175  A    between atoms: _399  and  _400
REMARK  176  A    between atoms: _399  and  _402
REMARK  177  A    between atoms: _402  and  _403
REMARK  178  A    between atoms: _408  and  _409
REMARK  179  A    between atoms: _411  and  _413
REMARK  180  A    between atoms: _413  and  _414
REMARK  181  A    between atoms: _413  and  _416
REMARK  182  A    between atoms: _416  and  _417
REMARK  183  A    between atoms: _419  and  _421
REMARK  184  A    between atoms: _421  and  _422
REMARK  185  A    between atoms: _425  and  _427
REMARK  186  A    between atoms: _427  and  _428
REMARK  187  A    between atoms: _427  and  _430
REMARK  188  A    between atoms: _433  and  _435
REMARK  189  A    between atoms: _435  and  _436
REMARK  190  A    between atoms: _435  and  _438
REMARK  191  A    between atoms: _438  and  _439
REMARK  192  A    between atoms: _442  and  _444
REMARK  193  A    between atoms: _444  and  _445
REMARK  194  A    between atoms: _444  and  _447
REMARK  195  A    between atoms: _447  and  _448
REMARK  196  A    between atoms: _451  and  _453
REMARK  197  A    between atoms: _453  and  _454
REMARK  198  A    between atoms: _453  and  _456
REMARK  199  A    between atoms: _456  and  _457
REMARK  200  A    between atoms: _457  and  _458
REMARK  201  A    between atoms: _458  and  _459
REMARK  202  A    between atoms: _459  and  _460
REMARK  203  A    between atoms: _464  and  _466
REMARK  204  A    between atoms: _466  and  _467
REMARK  205  A    between atoms: _466  and  _469
REMARK  206  A    between atoms: _469  and  _470
REMARK  207  A    between atoms: _475  and  _477
REMARK  208  A    between atoms: _477  and  _478
REMARK  209  A    between atoms: _480  and  _482
REMARK  210  A    between atoms: _482  and  _483
REMARK  211  A    between atoms: _482  and  _485
REMARK  212  A    between atoms: _485  and  _486
REMARK  213  A    between atoms: _489  and  _491
REMARK  214  A    between atoms: _491  and  _492
REMARK  215  A    between atoms: _491  and  _494
REMARK  216  A    between atoms: _494  and  _495
REMARK  217  A    between atoms: _495  and  _496
REMARK  218  A    between atoms: _496  and  _497
REMARK  219  A    between atoms: _497  and  _498
REMARK  220  A    between atoms: _502  and  _504
REMARK  221  A    between atoms: _504  and  _505
REMARK  222  A    between atoms: _504  and  _507
REMARK  223  A    between atoms: _510  and  _512
REMARK  224  A    between atoms: _512  and  _513
REMARK  225  A    between atoms: _512  and  _515
REMARK  226  A    between atoms: _515  and  _516
REMARK  227  A    between atoms: _516  and  _517
REMARK  228  A    between atoms: _517  and  _518
REMARK  229  A    between atoms: _518  and  _519
REMARK                            x       y       z     vdW  Elec       q    Type
REMARK                         _______ _______ _______ _____ _____    ______ ____
ROOT
ATOM      1  O   HOH     1      18.027  26.478  20.918  0.00  0.00    +0.000 OA
ENDROOT
TORSDOF 0
REMARK  Name = ../refined-set-2016/2qg0/2qg0_pocket.pdb
REMARK  229 active torsions:
REMARK  status: ('A' for Active; 'I' for Inactive)
REMARK    1  A    between atoms: _1  and  _3
REMARK    2  A    between atoms: _3  and  _4
REMARK    3  A    between atoms: _3  and  _6
REMARK    4  A    between atoms: _6  and  _7
REMARK    5  A    between atoms: _10  and  _12
REMARK    6  A    between atoms: _12  and  _13
REMARK    7  A    between atoms: _12  and  _15
REMARK    8  A    between atoms: _15  and  _16
REMARK    9  A    between atoms: _19  and  _21
REMARK   10  A    between atoms: _21  and  _22
REMARK   11  A    between atoms: _21  and  _24
REMARK   12  A    between atoms: _24  and  _25
REMARK   13  A    between atoms: _25  and  _26
REMARK   14  A    between atoms: _29  and  _31
REMARK   15  A    between atoms: _31  and  _32
REMARK   16  A    between atoms: _31  and  _34
REMARK   17  A    between atoms: _34  and  _35
REMARK   18  A    between atoms: _38  and  _40
REMARK   19  A    between atoms: _40  and  _41
REMARK   20  A    between atoms: _40  and  _43
REMARK   21  A    between atoms: _43  and  _44
REMARK   22  A    between atoms: _47  and  _49
REMARK   23  A    between atoms: _49  and  _50
REMARK   24  A    between atoms: _49  and  _52
REMARK   25  A    between atoms: _52  and  _53
REMARK   26  A    between atoms: _55  and  _57
REMARK   27  A    between atoms: _57  and  _58
REMARK   28  A    between atoms: _57  and  _60
REMARK   29  A    between atoms: _60  and  _61
REMARK   30  A    between atoms: _66  and  _68
REMARK   31  A    between atoms: _68  and  _69
REMARK   32  A    between atoms: _68  and  _71
REMARK   33  A    between atoms: _71  and  _72
REMARK   34  A    between atoms: _74  and  _76
REMARK   35  A    between atoms: _76  and  _77
REMARK   36  A    between atoms: _76  and  _79
REMARK   37  A    between atoms: _79  and  _80
REMARK   38  A    between atoms: _82  and  _84
REMARK   39  A    between atoms: _84  and  _85
REMARK   40  A    between atoms: _84  and  _87
REMARK   41  A    between atoms: _87  and  _88
REMARK   42  A    between atoms: _91  and  _93
REMARK   43  A    between atoms: _93  and  _94
REMARK   44  A    between atoms: _97  and  _99
REMARK   45  A    between atoms: _99  and  _100
REMARK   46  A    between atoms: _99  and  _102
REMARK   47  A    between atoms: _102  and  _103
REMARK   48  A    between atoms: _106  and  _108
REMARK   49  A    between atoms: _108  and  _109
REMARK   50  A    between atoms: _108  and  _111
REMARK   51  A    between atoms: _111  and  _112
REMARK   52  A    between atoms: _115  and  _117
REMARK   53  A    between atoms: _117  and  _118
REMARK   54  A    between atoms: _117  and  _120
REMARK   55  A    between atoms: _120  and  _121
REMARK   56  A    between atoms: _121  and  _122
REMARK   57  A    between atoms: _122  and  _123
REMARK   58  A    between atoms: _123  and  _124
REMARK   59  A    between atoms: _128  and  _130
REMARK   60  A    between atoms: _130  and  _131
REMARK   61  A    between atoms: _130  and  _133
REMARK   62  A    between atoms: _133  and  _134
REMARK   63  A    between atoms: _137  and  _139
REMARK   64  A    between atoms: _139  and  _140
REMARK   65  A    between atoms: _139  and  _142
REMARK   66  A    between atoms: _142  and  _143
REMARK   67  A    between atoms: _143  and  _144
REMARK   68  A    between atoms: _147  and  _149
REMARK   69  A    between atoms: _149  and  _150
REMARK   70  A    between atoms: _149  and  _152
REMARK   71  A    between atoms: _152  and  _153
REMARK   72  A    between atoms: _156  and  _158
REMARK   73  A    between atoms: _158  and  _159
REMARK   74  A    between atoms: _158  and  _161
REMARK   75  A    between atoms: _161  and  _162
REMARK   76  A    between atoms: _165  and  _167
REMARK   77  A    between atoms: _167  and  _168
REMARK   78  A    between atoms: _167  and  _170
REMARK   79  A    between atoms: _173  and  _175
REMARK   80  A    between atoms: _175  and  _176
REMARK   81  A    between atoms: _175  and  _178
REMARK   82  A    between atoms: _178  and  _179
REMARK   83  A    between atoms: _182  and  _184
REMARK   84  A    between atoms: _184  and  _185
REMARK   85  A    between atoms: _184  and  _187
REMARK   86  A    between atoms: _187  and  _188
REMARK   87  A    between atoms: _191  and  _193
REMARK   88  A    between atoms: _193  and  _194
REMARK   89  A    between atoms: _196  and  _198
REMARK   90  A    between atoms: _198  and  _199
REMARK   91  A    between atoms: _198  and  _201
REMARK   92  A    between atoms: _201  and  _202
REMARK   93  A    between atoms: _205  and  _207
REMARK   94  A    between atoms: _207  and  _208
REMARK   95  A    between atoms: _210  and  _212
REMARK   96  A    between atoms: _212  and  _213
REMARK   97  A    between atoms: _212  and  _215
REMARK   98  A    between atoms: _215  and  _216
REMARK   99  A    between atoms: _216  and  _217
REMARK  100  A    between atoms: _219  and  _221
REMARK  101  A    between atoms: _221  and  _222
REMARK  102  A    between atoms: _221  and  _224
REMARK  103  A    between atoms: _224  and  _225
REMARK  104  A    between atoms: _228  and  _230
REMARK  105  A    between atoms: _230  and  _231
REMARK  106  A    between atoms: _230  and  _233
REMARK  107  A    between atoms: _233  and  _234
REMARK  108  A    between atoms: _237  and  _239
REMARK  109  A    between atoms: _239  and  _240
REMARK  110  A    between atoms: _239  and  _242
REMARK  111  A    between atoms: _242  and  _243
REMARK  112  A    between atoms: _246  and  _248
REMARK  113  A    between atoms: _248  and  _249
REMARK  114  A    between atoms: _248  and  _251
REMARK  115  A    between atoms: _251  and  _252
REMARK  116  A    between atoms: _257  and  _259
REMARK  117  A    between atoms: _259  and  _260
REMARK  118  A    between atoms: _259  and  _262
REMARK  119  A    between atoms: _262  and  _263
REMARK  120  A    between atoms: _268  and  _270
REMARK  121  A    between atoms: _270  and  _271
REMARK  122  A    between atoms: _270  and  _273
REMARK  123  A    between atoms: _273  and  _274
REMARK  124  A    between atoms: _277  and  _279
REMARK  125  A    between atoms: _279  and  _280
REMARK  126  A    between atoms: _282  and  _284
REMARK  127  A    between atoms: _284  and  _285
REMARK  128  A    between atoms: _284  and  _287
REMARK  129  A    between atoms: _287  and  _288
REMARK  130  A    between atoms: _291  and  _293
REMARK  131  A    between atoms: _293  and  _294
REMARK  132  A    between atoms: _293  and  _296
REMARK  133  A    between atoms: _296  and  _297
REMARK  134  A    between atoms: _300  and  _302
REMARK  135  A    between atoms: _302  and  _303
REMARK  136  A    between atoms: _306  and  _308
REMARK  137  A    between atoms: _308  and  _309
REMARK  138  A    between atoms: _308  and  _311
REMARK  139  A    between atoms: _311  and  _312
REMARK  140  A    between atoms: _312  and  _313
REMARK  141  A    between atoms: _313  and  _314
REMARK  142  A    between atoms: _314  and  _315
REMARK  143  A    between atoms: _319  and  _321
REMARK  144  A    between atoms: _321  and  _322
REMARK  145  A    between atoms: _321  and  _324
REMARK  146  A    between atoms: _324  and  _325
REMARK  147  A    between atoms: _327  and  _329
REMARK  148  A    between atoms: _329  and  _330
REMARK  149  A    between atoms: _332  and  _334
REMARK  150  A    between atoms: _334  and  _335
REMARK  151  A    between atoms: _334  and  _337
REMARK  152  A    between atoms: _337  and  _338
REMARK  153  A    between atoms: _341  and  _343
REMARK  154  A    between atoms: _343  and  _344
REMARK  155  A    between atoms: _343  and  _346
REMARK  156  A    between atoms: _346  and  _347
REMARK  157  A    between atoms: _350  and  _352
REMARK  158  A    between atoms: _352  and  _353
REMARK  159  A    between atoms: _355  and  _357
REMARK  160  A    between atoms: _357  and  _358
REMARK  161  A    between atoms: _357  and  _360
REMARK  162  A    between atoms: _360  and  _361
REMARK  163  A    between atoms: _367  and  _369
REMARK  164  A    between atoms: _369  and  _370
REMARK  165  A    between atoms: _372  and  _374
REMARK  166  A    between atoms: _374  and  _375
REMARK  167  A    between atoms: _374  and  _377
REMARK  168  A    between atoms: _380  and  _382
REMARK  169  A    between atoms: _382  and  _383
REMARK  170  A    between atoms: _385  and  _387
REMARK  171  A    between atoms: _387  and  _388
REMARK  172  A    between atoms: _387  and  _390
REMARK  173  A    between atoms: _390  and  _391
REMARK  174  A    between atoms: _397  and  _399
REMARK  175  A    between atoms: _399  and  _400
REMARK  176  A    between atoms: _399  and  _402
REMARK  177  A    between atoms: _402  and  _403
REMARK  178  A    between atoms: _408  and  _409
REMARK  179  A    between atoms: _411  and  _413
REMARK  180  A    between atoms: _413  and  _414
REMARK  181  A    between atoms: _413  and  _416
REMARK  182  A    between atoms: _416  and  _417
REMARK  183  A    between atoms: _419  and  _421
REMARK  184  A    between atoms: _421  and  _422
REMARK  185  A    between atoms: _425  and  _427
REMARK  186  A    between atoms: _427  and  _428
REMARK  187  A    between atoms: _427  and  _430
REMARK  188  A    between atoms: _433  and  _435
REMARK  189  A    between atoms: _435  and  _436
REMARK  190  A    between atoms: _435  and  _438
REMARK  191  A    between atoms: _438  and  _439
REMARK  192  A    between atoms: _442  and  _444
REMARK  193  A    between atoms: _444  and  _445
REMARK  194  A    between atoms: _444  and  _447
REMARK  195  A    between atoms: _447  and  _448
REMARK  196  A    between atoms: _451  and  _453
REMARK  197  A    between atoms: _453  and  _454
REMARK  198  A    between atoms: _453  and  _456
REMARK  199  A    between atoms: _456  and  _457
REMARK  200  A    between atoms: _457  and  _458
REMARK  201  A    between atoms: _458  and  _459
REMARK  202  A    between atoms: _459  and  _460
REMARK  203  A    between atoms: _464  and  _466
REMARK  204  A    between atoms: _466  and  _467
REMARK  205  A    between atoms: _466  and  _469
REMARK  206  A    between atoms: _469  and  _470
REMARK  207  A    between atoms: _475  and  _477
REMARK  208  A    between atoms: _477  and  _478
REMARK  209  A    between atoms: _480  and  _482
REMARK  210  A    between atoms: _482  and  _483
REMARK  211  A    between atoms: _482  and  _485
REMARK  212  A    between atoms: _485  and  _486
REMARK  213  A    between atoms: _489  and  _491
REMARK  214  A    between atoms: _491  and  _492
REMARK  215  A    between atoms: _491  and  _494
REMARK  216  A    between atoms: _494  and  _495
REMARK  217  A    between atoms: _495  and  _496
REMARK  218  A    between atoms: _496  and  _497
REMARK  219  A    between atoms: _497  and  _498
REMARK  220  A    between atoms: _502  and  _504
REMARK  221  A    between atoms: _504  and  _505
REMARK  222  A    between atoms: _504  and  _507
REMARK  223  A    between atoms: _510  and  _512
REMARK  224  A    between atoms: _512  and  _513
REMARK  225  A    between atoms: _512  and  _515
REMARK  226  A    between atoms: _515  and  _516
REMARK  227  A    between atoms: _516  and  _517
REMARK  228  A    between atoms: _517  and  _518
REMARK  229  A    between atoms: _518  and  _519
REMARK                            x       y       z     vdW  Elec       q    Type
REMARK                         _______ _______ _______ _____ _____    ______ ____
ROOT
ATOM      1  O   HOH     1      15.625  27.940  13.948  0.00  0.00    +0.000 OA
ENDROOT
TORSDOF 0
REMARK  Name = ../refined-set-2016/2qg0/2qg0_pocket.pdb
REMARK  229 active torsions:
REMARK  status: ('A' for Active; 'I' for Inactive)
REMARK    1  A    between atoms: _1  and  _3
REMARK    2  A    between atoms: _3  and  _4
REMARK    3  A    between atoms: _3  and  _6
REMARK    4  A    between atoms: _6  and  _7
REMARK    5  A    between atoms: _10  and  _12
REMARK    6  A    between atoms: _12  and  _13
REMARK    7  A    between atoms: _12  and  _15
REMARK    8  A    between atoms: _15  and  _16
REMARK    9  A    between atoms: _19  and  _21
REMARK   10  A    between atoms: _21  and  _22
REMARK   11  A    between atoms: _21  and  _24
REMARK   12  A    between atoms: _24  and  _25
REMARK   13  A    between atoms: _25  and  _26
REMARK   14  A    between atoms: _29  and  _31
REMARK   15  A    between atoms: _31  and  _32
REMARK   16  A    between atoms: _31  and  _34
REMARK   17  A    between atoms: _34  and  _35
REMARK   18  A    between atoms: _38  and  _40
REMARK   19  A    between atoms: _40  and  _41
REMARK   20  A    between atoms: _40  and  _43
REMARK   21  A    between atoms: _43  and  _44
REMARK   22  A    between atoms: _47  and  _49
REMARK   23  A    between atoms: _49  and  _50
REMARK   24  A    between atoms: _49  and  _52
REMARK   25  A    between atoms: _52  and  _53
REMARK   26  A    between atoms: _55  and  _57
REMARK   27  A    between atoms: _57  and  _58
REMARK   28  A    between atoms: _57  and  _60
REMARK   29  A    between atoms: _60  and  _61
REMARK   30  A    between atoms: _66  and  _68
REMARK   31  A    between atoms: _68  and  _69
REMARK   32  A    between atoms: _68  and  _71
REMARK   33  A    between atoms: _71  and  _72
REMARK   34  A    between atoms: _74  and  _76
REMARK   35  A    between atoms: _76  and  _77
REMARK   36  A    between atoms: _76  and  _79
REMARK   37  A    between atoms: _79  and  _80
REMARK   38  A    between atoms: _82  and  _84
REMARK   39  A    between atoms: _84  and  _85
REMARK   40  A    between atoms: _84  and  _87
REMARK   41  A    between atoms: _87  and  _88
REMARK   42  A    between atoms: _91  and  _93
REMARK   43  A    between atoms: _93  and  _94
REMARK   44  A    between atoms: _97  and  _99
REMARK   45  A    between atoms: _99  and  _100
REMARK   46  A    between atoms: _99  and  _102
REMARK   47  A    between atoms: _102  and  _103
REMARK   48  A    between atoms: _106  and  _108
REMARK   49  A    between atoms: _108  and  _109
REMARK   50  A    between atoms: _108  and  _111
REMARK   51  A    between atoms: _111  and  _112
REMARK   52  A    between atoms: _115  and  _117
REMARK   53  A    between atoms: _117  and  _118
REMARK   54  A    between atoms: _117  and  _120
REMARK   55  A    between atoms: _120  and  _121
REMARK   56  A    between atoms: _121  and  _122
REMARK   57  A    between atoms: _122  and  _123
REMARK   58  A    between atoms: _123  and  _124
REMARK   59  A    between atoms: _128  and  _130
REMARK   60  A    between atoms: _130  and  _131
REMARK   61  A    between atoms: _130  and  _133
REMARK   62  A    between atoms: _133  and  _134
REMARK   63  A    between atoms: _137  and  _139
REMARK   64  A    between atoms: _139  and  _140
REMARK   65  A    between atoms: _139  and  _142
REMARK   66  A    between atoms: _142  and  _143
REMARK   67  A    between atoms: _143  and  _144
REMARK   68  A    between atoms: _147  and  _149
REMARK   69  A    between atoms: _149  and  _150
REMARK   70  A    between atoms: _149  and  _152
REMARK   71  A    between atoms: _152  and  _153
REMARK   72  A    between atoms: _156  and  _158
REMARK   73  A    between atoms: _158  and  _159
REMARK   74  A    between atoms: _158  and  _161
REMARK   75  A    between atoms: _161  and  _162
REMARK   76  A    between atoms: _165  and  _167
REMARK   77  A    between atoms: _167  and  _168
REMARK   78  A    between atoms: _167  and  _170
REMARK   79  A    between atoms: _173  and  _175
REMARK   80  A    between atoms: _175  and  _176
REMARK   81  A    between atoms: _175  and  _178
REMARK   82  A    between atoms: _178  and  _179
REMARK   83  A    between atoms: _182  and  _184
REMARK   84  A    between atoms: _184  and  _185
REMARK   85  A    between atoms: _184  and  _187
REMARK   86  A    between atoms: _187  and  _188
REMARK   87  A    between atoms: _191  and  _193
REMARK   88  A    between atoms: _193  and  _194
REMARK   89  A    between atoms: _196  and  _198
REMARK   90  A    between atoms: _198  and  _199
REMARK   91  A    between atoms: _198  and  _201
REMARK   92  A    between atoms: _201  and  _202
REMARK   93  A    between atoms: _205  and  _207
REMARK   94  A    between atoms: _207  and  _208
REMARK   95  A    between atoms: _210  and  _212
REMARK   96  A    between atoms: _212  and  _213
REMARK   97  A    between atoms: _212  and  _215
REMARK   98  A    between atoms: _215  and  _216
REMARK   99  A    between atoms: _216  and  _217
REMARK  100  A    between atoms: _219  and  _221
REMARK  101  A    between atoms: _221  and  _222
REMARK  102  A    between atoms: _221  and  _224
REMARK  103  A    between atoms: _224  and  _225
REMARK  104  A    between atoms: _228  and  _230
REMARK  105  A    between atoms: _230  and  _231
REMARK  106  A    between atoms: _230  and  _233
REMARK  107  A    between atoms: _233  and  _234
REMARK  108  A    between atoms: _237  and  _239
REMARK  109  A    between atoms: _239  and  _240
REMARK  110  A    between atoms: _239  and  _242
REMARK  111  A    between atoms: _242  and  _243
REMARK  112  A    between atoms: _246  and  _248
REMARK  113  A    between atoms: _248  and  _249
REMARK  114  A    between atoms: _248  and  _251
REMARK  115  A    between atoms: _251  and  _252
REMARK  116  A    between atoms: _257  and  _259
REMARK  117  A    between atoms: _259  and  _260
REMARK  118  A    between atoms: _259  and  _262
REMARK  119  A    between atoms: _262  and  _263
REMARK  120  A    between atoms: _268  and  _270
REMARK  121  A    between atoms: _270  and  _271
REMARK  122  A    between atoms: _270  and  _273
REMARK  123  A    between atoms: _273  and  _274
REMARK  124  A    between atoms: _277  and  _279
REMARK  125  A    between atoms: _279  and  _280
REMARK  126  A    between atoms: _282  and  _284
REMARK  127  A    between atoms: _284  and  _285
REMARK  128  A    between atoms: _284  and  _287
REMARK  129  A    between atoms: _287  and  _288
REMARK  130  A    between atoms: _291  and  _293
REMARK  131  A    between atoms: _293  and  _294
REMARK  132  A    between atoms: _293  and  _296
REMARK  133  A    between atoms: _296  and  _297
REMARK  134  A    between atoms: _300  and  _302
REMARK  135  A    between atoms: _302  and  _303
REMARK  136  A    between atoms: _306  and  _308
REMARK  137  A    between atoms: _308  and  _309
REMARK  138  A    between atoms: _308  and  _311
REMARK  139  A    between atoms: _311  and  _312
REMARK  140  A    between atoms: _312  and  _313
REMARK  141  A    between atoms: _313  and  _314
REMARK  142  A    between atoms: _314  and  _315
REMARK  143  A    between atoms: _319  and  _321
REMARK  144  A    between atoms: _321  and  _322
REMARK  145  A    between atoms: _321  and  _324
REMARK  146  A    between atoms: _324  and  _325
REMARK  147  A    between atoms: _327  and  _329
REMARK  148  A    between atoms: _329  and  _330
REMARK  149  A    between atoms: _332  and  _334
REMARK  150  A    between atoms: _334  and  _335
REMARK  151  A    between atoms: _334  and  _337
REMARK  152  A    between atoms: _337  and  _338
REMARK  153  A    between atoms: _341  and  _343
REMARK  154  A    between atoms: _343  and  _344
REMARK  155  A    between atoms: _343  and  _346
REMARK  156  A    between atoms: _346  and  _347
REMARK  157  A    between atoms: _350  and  _352
REMARK  158  A    between atoms: _352  and  _353
REMARK  159  A    between atoms: _355  and  _357
REMARK  160  A    between atoms: _357  and  _358
REMARK  161  A    between atoms: _357  and  _360
REMARK  162  A    between atoms: _360  and  _361
REMARK  163  A    between atoms: _367  and  _369
REMARK  164  A    between atoms: _369  and  _370
REMARK  165  A    between atoms: _372  and  _374
REMARK  166  A    between atoms: _374  and  _375
REMARK  167  A    between atoms: _374  and  _377
REMARK  168  A    between atoms: _380  and  _382
REMARK  169  A    between atoms: _382  and  _383
REMARK  170  A    between atoms: _385  and  _387
REMARK  171  A    between atoms: _387  and  _388
REMARK  172  A    between atoms: _387  and  _390
REMARK  173  A    between atoms: _390  and  _391
REMARK  174  A    between atoms: _397  and  _399
REMARK  175  A    between atoms: _399  and  _400
REMARK  176  A    between atoms: _399  and  _402
REMARK  177  A    between atoms: _402  and  _403
REMARK  178  A    between atoms: _408  and  _409
REMARK  179  A    between atoms: _411  and  _413
REMARK  180  A    between atoms: _413  and  _414
REMARK  181  A    between atoms: _413  and  _416
REMARK  182  A    between atoms: _416  and  _417
REMARK  183  A    between atoms: _419  and  _421
REMARK  184  A    between atoms: _421  and  _422
REMARK  185  A    between atoms: _425  and  _427
REMARK  186  A    between atoms: _427  and  _428
REMARK  187  A    between atoms: _427  and  _430
REMARK  188  A    between atoms: _433  and  _435
REMARK  189  A    between atoms: _435  and  _436
REMARK  190  A    between atoms: _435  and  _438
REMARK  191  A    between atoms: _438  and  _439
REMARK  192  A    between atoms: _442  and  _444
REMARK  193  A    between atoms: _444  and  _445
REMARK  194  A    between atoms: _444  and  _447
REMARK  195  A    between atoms: _447  and  _448
REMARK  196  A    between atoms: _451  and  _453
REMARK  197  A    between atoms: _453  and  _454
REMARK  198  A    between atoms: _453  and  _456
REMARK  199  A    between atoms: _456  and  _457
REMARK  200  A    between atoms: _457  and  _458
REMARK  201  A    between atoms: _458  and  _459
REMARK  202  A    between atoms: _459  and  _460
REMARK  203  A    between atoms: _464  and  _466
REMARK  204  A    between atoms: _466  and  _467
REMARK  205  A    between atoms: _466  and  _469
REMARK  206  A    between atoms: _469  and  _470
REMARK  207  A    between atoms: _475  and  _477
REMARK  208  A    between atoms: _477  and  _478
REMARK  209  A    between atoms: _480  and  _482
REMARK  210  A    between atoms: _482  and  _483
REMARK  211  A    between atoms: _482  and  _485
REMARK  212  A    between atoms: _485  and  _486
REMARK  213  A    between atoms: _489  and  _491
REMARK  214  A    between atoms: _491  and  _492
REMARK  215  A    between atoms: _491  and  _494
REMARK  216  A    between atoms: _494  and  _495
REMARK  217  A    between atoms: _495  and  _496
REMARK  218  A    between atoms: _496  and  _497
REMARK  219  A    between atoms: _497  and  _498
REMARK  220  A    between atoms: _502  and  _504
REMARK  221  A    between atoms: _504  and  _505
REMARK  222  A    between atoms: _504  and  _507
REMARK  223  A    between atoms: _510  and  _512
REMARK  224  A    between atoms: _512  and  _513
REMARK  225  A    between atoms: _512  and  _515
REMARK  226  A    between atoms: _515  and  _516
REMARK  227  A    between atoms: _516  and  _517
REMARK  228  A    between atoms: _517  and  _518
REMARK  229  A    between atoms: _518  and  _519
REMARK                            x       y       z     vdW  Elec       q    Type
REMARK                         _______ _______ _______ _____ _____    ______ ____
ROOT
ATOM      1  O   HOH     1      13.990  29.748  18.265  0.00  0.00    +0.000 OA
ENDROOT
TORSDOF 0
REMARK  Name = ../refined-set-2016/2qg0/2qg0_pocket.pdb
REMARK  229 active torsions:
REMARK  status: ('A' for Active; 'I' for Inactive)
REMARK    1  A    between atoms: _1  and  _3
REMARK    2  A    between atoms: _3  and  _4
REMARK    3  A    between atoms: _3  and  _6
REMARK    4  A    between atoms: _6  and  _7
REMARK    5  A    between atoms: _10  and  _12
REMARK    6  A    between atoms: _12  and  _13
REMARK    7  A    between atoms: _12  and  _15
REMARK    8  A    between atoms: _15  and  _16
REMARK    9  A    between atoms: _19  and  _21
REMARK   10  A    between atoms: _21  and  _22
REMARK   11  A    between atoms: _21  and  _24
REMARK   12  A    between atoms: _24  and  _25
REMARK   13  A    between atoms: _25  and  _26
REMARK   14  A    between atoms: _29  and  _31
REMARK   15  A    between atoms: _31  and  _32
REMARK   16  A    between atoms: _31  and  _34
REMARK   17  A    between atoms: _34  and  _35
REMARK   18  A    between atoms: _38  and  _40
REMARK   19  A    between atoms: _40  and  _41
REMARK   20  A    between atoms: _40  and  _43
REMARK   21  A    between atoms: _43  and  _44
REMARK   22  A    between atoms: _47  and  _49
REMARK   23  A    between atoms: _49  and  _50
REMARK   24  A    between atoms: _49  and  _52
REMARK   25  A    between atoms: _52  and  _53
REMARK   26  A    between atoms: _55  and  _57
REMARK   27  A    between atoms: _57  and  _58
REMARK   28  A    between atoms: _57  and  _60
REMARK   29  A    between atoms: _60  and  _61
REMARK   30  A    between atoms: _66  and  _68
REMARK   31  A    between atoms: _68  and  _69
REMARK   32  A    between atoms: _68  and  _71
REMARK   33  A    between atoms: _71  and  _72
REMARK   34  A    between atoms: _74  and  _76
REMARK   35  A    between atoms: _76  and  _77
REMARK   36  A    between atoms: _76  and  _79
REMARK   37  A    between atoms: _79  and  _80
REMARK   38  A    between atoms: _82  and  _84
REMARK   39  A    between atoms: _84  and  _85
REMARK   40  A    between atoms: _84  and  _87
REMARK   41  A    between atoms: _87  and  _88
REMARK   42  A    between atoms: _91  and  _93
REMARK   43  A    between atoms: _93  and  _94
REMARK   44  A    between atoms: _97  and  _99
REMARK   45  A    between atoms: _99  and  _100
REMARK   46  A    between atoms: _99  and  _102
REMARK   47  A    between atoms: _102  and  _103
REMARK   48  A    between atoms: _106  and  _108
REMARK   49  A    between atoms: _108  and  _109
REMARK   50  A    between atoms: _108  and  _111
REMARK   51  A    between atoms: _111  and  _112
REMARK   52  A    between atoms: _115  and  _117
REMARK   53  A    between atoms: _117  and  _118
REMARK   54  A    between atoms: _117  and  _120
REMARK   55  A    between atoms: _120  and  _121
REMARK   56  A    between atoms: _121  and  _122
REMARK   57  A    between atoms: _122  and  _123
REMARK   58  A    between atoms: _123  and  _124
REMARK   59  A    between atoms: _128  and  _130
REMARK   60  A    between atoms: _130  and  _131
REMARK   61  A    between atoms: _130  and  _133
REMARK   62  A    between atoms: _133  and  _134
REMARK   63  A    between atoms: _137  and  _139
REMARK   64  A    between atoms: _139  and  _140
REMARK   65  A    between atoms: _139  and  _142
REMARK   66  A    between atoms: _142  and  _143
REMARK   67  A    between atoms: _143  and  _144
REMARK   68  A    between atoms: _147  and  _149
REMARK   69  A    between atoms: _149  and  _150
REMARK   70  A    between atoms: _149  and  _152
REMARK   71  A    between atoms: _152  and  _153
REMARK   72  A    between atoms: _156  and  _158
REMARK   73  A    between atoms: _158  and  _159
REMARK   74  A    between atoms: _158  and  _161
REMARK   75  A    between atoms: _161  and  _162
REMARK   76  A    between atoms: _165  and  _167
REMARK   77  A    between atoms: _167  and  _168
REMARK   78  A    between atoms: _167  and  _170
REMARK   79  A    between atoms: _173  and  _175
REMARK   80  A    between atoms: _175  and  _176
REMARK   81  A    between atoms: _175  and  _178
REMARK   82  A    between atoms: _178  and  _179
REMARK   83  A    between atoms: _182  and  _184
REMARK   84  A    between atoms: _184  and  _185
REMARK   85  A    between atoms: _184  and  _187
REMARK   86  A    between atoms: _187  and  _188
REMARK   87  A    between atoms: _191  and  _193
REMARK   88  A    between atoms: _193  and  _194
REMARK   89  A    between atoms: _196  and  _198
REMARK   90  A    between atoms: _198  and  _199
REMARK   91  A    between atoms: _198  and  _201
REMARK   92  A    between atoms: _201  and  _202
REMARK   93  A    between atoms: _205  and  _207
REMARK   94  A    between atoms: _207  and  _208
REMARK   95  A    between atoms: _210  and  _212
REMARK   96  A    between atoms: _212  and  _213
REMARK   97  A    between atoms: _212  and  _215
REMARK   98  A    between atoms: _215  and  _216
REMARK   99  A    between atoms: _216  and  _217
REMARK  100  A    between atoms: _219  and  _221
REMARK  101  A    between atoms: _221  and  _222
REMARK  102  A    between atoms: _221  and  _224
REMARK  103  A    between atoms: _224  and  _225
REMARK  104  A    between atoms: _228  and  _230
REMARK  105  A    between atoms: _230  and  _231
REMARK  106  A    between atoms: _230  and  _233
REMARK  107  A    between atoms: _233  and  _234
REMARK  108  A    between atoms: _237  and  _239
REMARK  109  A    between atoms: _239  and  _240
REMARK  110  A    between atoms: _239  and  _242
REMARK  111  A    between atoms: _242  and  _243
REMARK  112  A    between atoms: _246  and  _248
REMARK  113  A    between atoms: _248  and  _249
REMARK  114  A    between atoms: _248  and  _251
REMARK  115  A    between atoms: _251  and  _252
REMARK  116  A    between atoms: _257  and  _259
REMARK  117  A    between atoms: _259  and  _260
REMARK  118  A    between atoms: _259  and  _262
REMARK  119  A    between atoms: _262  and  _263
REMARK  120  A    between atoms: _268  and  _270
REMARK  121  A    between atoms: _270  and  _271
REMARK  122  A    between atoms: _270  and  _273
REMARK  123  A    between atoms: _273  and  _274
REMARK  124  A    between atoms: _277  and  _279
REMARK  125  A    between atoms: _279  and  _280
REMARK  126  A    between atoms: _282  and  _284
REMARK  127  A    between atoms: _284  and  _285
REMARK  128  A    between atoms: _284  and  _287
REMARK  129  A    between atoms: _287  and  _288
REMARK  130  A    between atoms: _291  and  _293
REMARK  131  A    between atoms: _293  and  _294
REMARK  132  A    between atoms: _293  and  _296
REMARK  133  A    between atoms: _296  and  _297
REMARK  134  A    between atoms: _300  and  _302
REMARK  135  A    between atoms: _302  and  _303
REMARK  136  A    between atoms: _306  and  _308
REMARK  137  A    between atoms: _308  and  _309
REMARK  138  A    between atoms: _308  and  _311
REMARK  139  A    between atoms: _311  and  _312
REMARK  140  A    between atoms: _312  and  _313
REMARK  141  A    between atoms: _313  and  _314
REMARK  142  A    between atoms: _314  and  _315
REMARK  143  A    between atoms: _319  and  _321
REMARK  144  A    between atoms: _321  and  _322
REMARK  145  A    between atoms: _321  and  _324
REMARK  146  A    between atoms: _324  and  _325
REMARK  147  A    between atoms: _327  and  _329
REMARK  148  A    between atoms: _329  and  _330
REMARK  149  A    between atoms: _332  and  _334
REMARK  150  A    between atoms: _334  and  _335
REMARK  151  A    between atoms: _334  and  _337
REMARK  152  A    between atoms: _337  and  _338
REMARK  153  A    between atoms: _341  and  _343
REMARK  154  A    between atoms: _343  and  _344
REMARK  155  A    between atoms: _343  and  _346
REMARK  156  A    between atoms: _346  and  _347
REMARK  157  A    between atoms: _350  and  _352
REMARK  158  A    between atoms: _352  and  _353
REMARK  159  A    between atoms: _355  and  _357
REMARK  160  A    between atoms: _357  and  _358
REMARK  161  A    between atoms: _357  and  _360
REMARK  162  A    between atoms: _360  and  _361
REMARK  163  A    between atoms: _367  and  _369
REMARK  164  A    between atoms: _369  and  _370
REMARK  165  A    between atoms: _372  and  _374
REMARK  166  A    between atoms: _374  and  _375
REMARK  167  A    between atoms: _374  and  _377
REMARK  168  A    between atoms: _380  and  _382
REMARK  169  A    between atoms: _382  and  _383
REMARK  170  A    between atoms: _385  and  _387
REMARK  171  A    between atoms: _387  and  _388
REMARK  172  A    between atoms: _387  and  _390
REMARK  173  A    between atoms: _390  and  _391
REMARK  174  A    between atoms: _397  and  _399
REMARK  175  A    between atoms: _399  and  _400
REMARK  176  A    between atoms: _399  and  _402
REMARK  177  A    between atoms: _402  and  _403
REMARK  178  A    between atoms: _408  and  _409
REMARK  179  A    between atoms: _411  and  _413
REMARK  180  A    between atoms: _413  and  _414
REMARK  181  A    between atoms: _413  and  _416
REMARK  182  A    between atoms: _416  and  _417
REMARK  183  A    between atoms: _419  and  _421
REMARK  184  A    between atoms: _421  and  _422
REMARK  185  A    between atoms: _425  and  _427
REMARK  186  A    between atoms: _427  and  _428
REMARK  187  A    between atoms: _427  and  _430
REMARK  188  A    between atoms: _433  and  _435
REMARK  189  A    between atoms: _435  and  _436
REMARK  190  A    between atoms: _435  and  _438
REMARK  191  A    between atoms: _438  and  _439
REMARK  192  A    between atoms: _442  and  _444
REMARK  193  A    between atoms: _444  and  _445
REMARK  194  A    between atoms: _444  and  _447
REMARK  195  A    between atoms: _447  and  _448
REMARK  196  A    between atoms: _451  and  _453
REMARK  197  A    between atoms: _453  and  _454
REMARK  198  A    between atoms: _453  and  _456
REMARK  199  A    between atoms: _456  and  _457
REMARK  200  A    between atoms: _457  and  _458
REMARK  201  A    between atoms: _458  and  _459
REMARK  202  A    between atoms: _459  and  _460
REMARK  203  A    between atoms: _464  and  _466
REMARK  204  A    between atoms: _466  and  _467
REMARK  205  A    between atoms: _466  and  _469
REMARK  206  A    between atoms: _469  and  _470
REMARK  207  A    between atoms: _475  and  _477
REMARK  208  A    between atoms: _477  and  _478
REMARK  209  A    between atoms: _480  and  _482
REMARK  210  A    between atoms: _482  and  _483
REMARK  211  A    between atoms: _482  and  _485
REMARK  212  A    between atoms: _485  and  _486
REMARK  213  A    between atoms: _489  and  _491
REMARK  214  A    between atoms: _491  and  _492
REMARK  215  A    between atoms: _491  and  _494
REMARK  216  A    between atoms: _494  and  _495
REMARK  217  A    between atoms: _495  and  _496
REMARK  218  A    between atoms: _496  and  _497
REMARK  219  A    between atoms: _497  and  _498
REMARK  220  A    between atoms: _502  and  _504
REMARK  221  A    between atoms: _504  and  _505
REMARK  222  A    between atoms: _504  and  _507
REMARK  223  A    between atoms: _510  and  _512
REMARK  224  A    between atoms: _512  and  _513
REMARK  225  A    between atoms: _512  and  _515
REMARK  226  A    between atoms: _515  and  _516
REMARK  227  A    between atoms: _516  and  _517
REMARK  228  A    between atoms: _517  and  _518
REMARK  229  A    between atoms: _518  and  _519
REMARK                            x       y       z     vdW  Elec       q    Type
REMARK                         _______ _______ _______ _____ _____    ______ ____
ROOT
ATOM      1  O   HOH     1      13.801  28.240  16.011  0.00  0.00    +0.000 OA
ENDROOT
TORSDOF 0
REMARK  Name = ../refined-set-2016/2qg0/2qg0_pocket.pdb
REMARK  229 active torsions:
REMARK  status: ('A' for Active; 'I' for Inactive)
REMARK    1  A    between atoms: _1  and  _3
REMARK    2  A    between atoms: _3  and  _4
REMARK    3  A    between atoms: _3  and  _6
REMARK    4  A    between atoms: _6  and  _7
REMARK    5  A    between atoms: _10  and  _12
REMARK    6  A    between atoms: _12  and  _13
REMARK    7  A    between atoms: _12  and  _15
REMARK    8  A    between atoms: _15  and  _16
REMARK    9  A    between atoms: _19  and  _21
REMARK   10  A    between atoms: _21  and  _22
REMARK   11  A    between atoms: _21  and  _24
REMARK   12  A    between atoms: _24  and  _25
REMARK   13  A    between atoms: _25  and  _26
REMARK   14  A    between atoms: _29  and  _31
REMARK   15  A    between atoms: _31  and  _32
REMARK   16  A    between atoms: _31  and  _34
REMARK   17  A    between atoms: _34  and  _35
REMARK   18  A    between atoms: _38  and  _40
REMARK   19  A    between atoms: _40  and  _41
REMARK   20  A    between atoms: _40  and  _43
REMARK   21  A    between atoms: _43  and  _44
REMARK   22  A    between atoms: _47  and  _49
REMARK   23  A    between atoms: _49  and  _50
REMARK   24  A    between atoms: _49  and  _52
REMARK   25  A    between atoms: _52  and  _53
REMARK   26  A    between atoms: _55  and  _57
REMARK   27  A    between atoms: _57  and  _58
REMARK   28  A    between atoms: _57  and  _60
REMARK   29  A    between atoms: _60  and  _61
REMARK   30  A    between atoms: _66  and  _68
REMARK   31  A    between atoms: _68  and  _69
REMARK   32  A    between atoms: _68  and  _71
REMARK   33  A    between atoms: _71  and  _72
REMARK   34  A    between atoms: _74  and  _76
REMARK   35  A    between atoms: _76  and  _77
REMARK   36  A    between atoms: _76  and  _79
REMARK   37  A    between atoms: _79  and  _80
REMARK   38  A    between atoms: _82  and  _84
REMARK   39  A    between atoms: _84  and  _85
REMARK   40  A    between atoms: _84  and  _87
REMARK   41  A    between atoms: _87  and  _88
REMARK   42  A    between atoms: _91  and  _93
REMARK   43  A    between atoms: _93  and  _94
REMARK   44  A    between atoms: _97  and  _99
REMARK   45  A    between atoms: _99  and  _100
REMARK   46  A    between atoms: _99  and  _102
REMARK   47  A    between atoms: _102  and  _103
REMARK   48  A    between atoms: _106  and  _108
REMARK   49  A    between atoms: _108  and  _109
REMARK   50  A    between atoms: _108  and  _111
REMARK   51  A    between atoms: _111  and  _112
REMARK   52  A    between atoms: _115  and  _117
REMARK   53  A    between atoms: _117  and  _118
REMARK   54  A    between atoms: _117  and  _120
REMARK   55  A    between atoms: _120  and  _121
REMARK   56  A    between atoms: _121  and  _122
REMARK   57  A    between atoms: _122  and  _123
REMARK   58  A    between atoms: _123  and  _124
REMARK   59  A    between atoms: _128  and  _130
REMARK   60  A    between atoms: _130  and  _131
REMARK   61  A    between atoms: _130  and  _133
REMARK   62  A    between atoms: _133  and  _134
REMARK   63  A    between atoms: _137  and  _139
REMARK   64  A    between atoms: _139  and  _140
REMARK   65  A    between atoms: _139  and  _142
REMARK   66  A    between atoms: _142  and  _143
REMARK   67  A    between atoms: _143  and  _144
REMARK   68  A    between atoms: _147  and  _149
REMARK   69  A    between atoms: _149  and  _150
REMARK   70  A    between atoms: _149  and  _152
REMARK   71  A    between atoms: _152  and  _153
REMARK   72  A    between atoms: _156  and  _158
REMARK   73  A    between atoms: _158  and  _159
REMARK   74  A    between atoms: _158  and  _161
REMARK   75  A    between atoms: _161  and  _162
REMARK   76  A    between atoms: _165  and  _167
REMARK   77  A    between atoms: _167  and  _168
REMARK   78  A    between atoms: _167  and  _170
REMARK   79  A    between atoms: _173  and  _175
REMARK   80  A    between atoms: _175  and  _176
REMARK   81  A    between atoms: _175  and  _178
REMARK   82  A    between atoms: _178  and  _179
REMARK   83  A    between atoms: _182  and  _184
REMARK   84  A    between atoms: _184  and  _185
REMARK   85  A    between atoms: _184  and  _187
REMARK   86  A    between atoms: _187  and  _188
REMARK   87  A    between atoms: _191  and  _193
REMARK   88  A    between atoms: _193  and  _194
REMARK   89  A    between atoms: _196  and  _198
REMARK   90  A    between atoms: _198  and  _199
REMARK   91  A    between atoms: _198  and  _201
REMARK   92  A    between atoms: _201  and  _202
REMARK   93  A    between atoms: _205  and  _207
REMARK   94  A    between atoms: _207  and  _208
REMARK   95  A    between atoms: _210  and  _212
REMARK   96  A    between atoms: _212  and  _213
REMARK   97  A    between atoms: _212  and  _215
REMARK   98  A    between atoms: _215  and  _216
REMARK   99  A    between atoms: _216  and  _217
REMARK  100  A    between atoms: _219  and  _221
REMARK  101  A    between atoms: _221  and  _222
REMARK  102  A    between atoms: _221  and  _224
REMARK  103  A    between atoms: _224  and  _225
REMARK  104  A    between atoms: _228  and  _230
REMARK  105  A    between atoms: _230  and  _231
REMARK  106  A    between atoms: _230  and  _233
REMARK  107  A    between atoms: _233  and  _234
REMARK  108  A    between atoms: _237  and  _239
REMARK  109  A    between atoms: _239  and  _240
REMARK  110  A    between atoms: _239  and  _242
REMARK  111  A    between atoms: _242  and  _243
REMARK  112  A    between atoms: _246  and  _248
REMARK  113  A    between atoms: _248  and  _249
REMARK  114  A    between atoms: _248  and  _251
REMARK  115  A    between atoms: _251  and  _252
REMARK  116  A    between atoms: _257  and  _259
REMARK  117  A    between atoms: _259  and  _260
REMARK  118  A    between atoms: _259  and  _262
REMARK  119  A    between atoms: _262  and  _263
REMARK  120  A    between atoms: _268  and  _270
REMARK  121  A    between atoms: _270  and  _271
REMARK  122  A    between atoms: _270  and  _273
REMARK  123  A    between atoms: _273  and  _274
REMARK  124  A    between atoms: _277  and  _279
REMARK  125  A    between atoms: _279  and  _280
REMARK  126  A    between atoms: _282  and  _284
REMARK  127  A    between atoms: _284  and  _285
REMARK  128  A    between atoms: _284  and  _287
REMARK  129  A    between atoms: _287  and  _288
REMARK  130  A    between atoms: _291  and  _293
REMARK  131  A    between atoms: _293  and  _294
REMARK  132  A    between atoms: _293  and  _296
REMARK  133  A    between atoms: _296  and  _297
REMARK  134  A    between atoms: _300  and  _302
REMARK  135  A    between atoms: _302  and  _303
REMARK  136  A    between atoms: _306  and  _308
REMARK  137  A    between atoms: _308  and  _309
REMARK  138  A    between atoms: _308  and  _311
REMARK  139  A    between atoms: _311  and  _312
REMARK  140  A    between atoms: _312  and  _313
REMARK  141  A    between atoms: _313  and  _314
REMARK  142  A    between atoms: _314  and  _315
REMARK  143  A    between atoms: _319  and  _321
REMARK  144  A    between atoms: _321  and  _322
REMARK  145  A    between atoms: _321  and  _324
REMARK  146  A    between atoms: _324  and  _325
REMARK  147  A    between atoms: _327  and  _329
REMARK  148  A    between atoms: _329  and  _330
REMARK  149  A    between atoms: _332  and  _334
REMARK  150  A    between atoms: _334  and  _335
REMARK  151  A    between atoms: _334  and  _337
REMARK  152  A    between atoms: _337  and  _338
REMARK  153  A    between atoms: _341  and  _343
REMARK  154  A    between atoms: _343  and  _344
REMARK  155  A    between atoms: _343  and  _346
REMARK  156  A    between atoms: _346  and  _347
REMARK  157  A    between atoms: _350  and  _352
REMARK  158  A    between atoms: _352  and  _353
REMARK  159  A    between atoms: _355  and  _357
REMARK  160  A    between atoms: _357  and  _358
REMARK  161  A    between atoms: _357  and  _360
REMARK  162  A    between atoms: _360  and  _361
REMARK  163  A    between atoms: _367  and  _369
REMARK  164  A    between atoms: _369  and  _370
REMARK  165  A    between atoms: _372  and  _374
REMARK  166  A    between atoms: _374  and  _375
REMARK  167  A    between atoms: _374  and  _377
REMARK  168  A    between atoms: _380  and  _382
REMARK  169  A    between atoms: _382  and  _383
REMARK  170  A    between atoms: _385  and  _387
REMARK  171  A    between atoms: _387  and  _388
REMARK  172  A    between atoms: _387  and  _390
REMARK  173  A    between atoms: _390  and  _391
REMARK  174  A    between atoms: _397  and  _399
REMARK  175  A    between atoms: _399  and  _400
REMARK  176  A    between atoms: _399  and  _402
REMARK  177  A    between atoms: _402  and  _403
REMARK  178  A    between atoms: _408  and  _409
REMARK  179  A    between atoms: _411  and  _413
REMARK  180  A    between atoms: _413  and  _414
REMARK  181  A    between atoms: _413  and  _416
REMARK  182  A    between atoms: _416  and  _417
REMARK  183  A    between atoms: _419  and  _421
REMARK  184  A    between atoms: _421  and  _422
REMARK  185  A    between atoms: _425  and  _427
REMARK  186  A    between atoms: _427  and  _428
REMARK  187  A    between atoms: _427  and  _430
REMARK  188  A    between atoms: _433  and  _435
REMARK  189  A    between atoms: _435  and  _436
REMARK  190  A    between atoms: _435  and  _438
REMARK  191  A    between atoms: _438  and  _439
REMARK  192  A    between atoms: _442  and  _444
REMARK  193  A    between atoms: _444  and  _445
REMARK  194  A    between atoms: _444  and  _447
REMARK  195  A    between atoms: _447  and  _448
REMARK  196  A    between atoms: _451  and  _453
REMARK  197  A    between atoms: _453  and  _454
REMARK  198  A    between atoms: _453  and  _456
REMARK  199  A    between atoms: _456  and  _457
REMARK  200  A    between atoms: _457  and  _458
REMARK  201  A    between atoms: _458  and  _459
REMARK  202  A    between atoms: _459  and  _460
REMARK  203  A    between atoms: _464  and  _466
REMARK  204  A    between atoms: _466  and  _467
REMARK  205  A    between atoms: _466  and  _469
REMARK  206  A    between atoms: _469  and  _470
REMARK  207  A    between atoms: _475  and  _477
REMARK  208  A    between atoms: _477  and  _478
REMARK  209  A    between atoms: _480  and  _482
REMARK  210  A    between atoms: _482  and  _483
REMARK  211  A    between atoms: _482  and  _485
REMARK  212  A    between atoms: _485  and  _486
REMARK  213  A    between atoms: _489  and  _491
REMARK  214  A    between atoms: _491  and  _492
REMARK  215  A    between atoms: _491  and  _494
REMARK  216  A    between atoms: _494  and  _495
REMARK  217  A    between atoms: _495  and  _496
REMARK  218  A    between atoms: _496  and  _497
REMARK  219  A    between atoms: _497  and  _498
REMARK  220  A    between atoms: _502  and  _504
REMARK  221  A    between atoms: _504  and  _505
REMARK  222  A    between atoms: _504  and  _507
REMARK  223  A    between atoms: _510  and  _512
REMARK  224  A    between atoms: _512  and  _513
REMARK  225  A    between atoms: _512  and  _515
REMARK  226  A    between atoms: _515  and  _516
REMARK  227  A    between atoms: _516  and  _517
REMARK  228  A    between atoms: _517  and  _518
REMARK  229  A    between atoms: _518  and  _519
REMARK                            x       y       z     vdW  Elec       q    Type
REMARK                         _______ _______ _______ _____ _____    ______ ____
ROOT
ATOM      1  O   HOH     1      13.273  22.847  10.152  0.00  0.00    +0.000 OA
ENDROOT
TORSDOF 0
REMARK  Name = ../refined-set-2016/2qg0/2qg0_pocket.pdb
REMARK  229 active torsions:
REMARK  status: ('A' for Active; 'I' for Inactive)
REMARK    1  A    between atoms: _1  and  _3
REMARK    2  A    between atoms: _3  and  _4
REMARK    3  A    between atoms: _3  and  _6
REMARK    4  A    between atoms: _6  and  _7
REMARK    5  A    between atoms: _10  and  _12
REMARK    6  A    between atoms: _12  and  _13
REMARK    7  A    between atoms: _12  and  _15
REMARK    8  A    between atoms: _15  and  _16
REMARK    9  A    between atoms: _19  and  _21
REMARK   10  A    between atoms: _21  and  _22
REMARK   11  A    between atoms: _21  and  _24
REMARK   12  A    between atoms: _24  and  _25
REMARK   13  A    between atoms: _25  and  _26
REMARK   14  A    between atoms: _29  and  _31
REMARK   15  A    between atoms: _31  and  _32
REMARK   16  A    between atoms: _31  and  _34
REMARK   17  A    between atoms: _34  and  _35
REMARK   18  A    between atoms: _38  and  _40
REMARK   19  A    between atoms: _40  and  _41
REMARK   20  A    between atoms: _40  and  _43
REMARK   21  A    between atoms: _43  and  _44
REMARK   22  A    between atoms: _47  and  _49
REMARK   23  A    between atoms: _49  and  _50
REMARK   24  A    between atoms: _49  and  _52
REMARK   25  A    between atoms: _52  and  _53
REMARK   26  A    between atoms: _55  and  _57
REMARK   27  A    between atoms: _57  and  _58
REMARK   28  A    between atoms: _57  and  _60
REMARK   29  A    between atoms: _60  and  _61
REMARK   30  A    between atoms: _66  and  _68
REMARK   31  A    between atoms: _68  and  _69
REMARK   32  A    between atoms: _68  and  _71
REMARK   33  A    between atoms: _71  and  _72
REMARK   34  A    between atoms: _74  and  _76
REMARK   35  A    between atoms: _76  and  _77
REMARK   36  A    between atoms: _76  and  _79
REMARK   37  A    between atoms: _79  and  _80
REMARK   38  A    between atoms: _82  and  _84
REMARK   39  A    between atoms: _84  and  _85
REMARK   40  A    between atoms: _84  and  _87
REMARK   41  A    between atoms: _87  and  _88
REMARK   42  A    between atoms: _91  and  _93
REMARK   43  A    between atoms: _93  and  _94
REMARK   44  A    between atoms: _97  and  _99
REMARK   45  A    between atoms: _99  and  _100
REMARK   46  A    between atoms: _99  and  _102
REMARK   47  A    between atoms: _102  and  _103
REMARK   48  A    between atoms: _106  and  _108
REMARK   49  A    between atoms: _108  and  _109
REMARK   50  A    between atoms: _108  and  _111
REMARK   51  A    between atoms: _111  and  _112
REMARK   52  A    between atoms: _115  and  _117
REMARK   53  A    between atoms: _117  and  _118
REMARK   54  A    between atoms: _117  and  _120
REMARK   55  A    between atoms: _120  and  _121
REMARK   56  A    between atoms: _121  and  _122
REMARK   57  A    between atoms: _122  and  _123
REMARK   58  A    between atoms: _123  and  _124
REMARK   59  A    between atoms: _128  and  _130
REMARK   60  A    between atoms: _130  and  _131
REMARK   61  A    between atoms: _130  and  _133
REMARK   62  A    between atoms: _133  and  _134
REMARK   63  A    between atoms: _137  and  _139
REMARK   64  A    between atoms: _139  and  _140
REMARK   65  A    between atoms: _139  and  _142
REMARK   66  A    between atoms: _142  and  _143
REMARK   67  A    between atoms: _143  and  _144
REMARK   68  A    between atoms: _147  and  _149
REMARK   69  A    between atoms: _149  and  _150
REMARK   70  A    between atoms: _149  and  _152
REMARK   71  A    between atoms: _152  and  _153
REMARK   72  A    between atoms: _156  and  _158
REMARK   73  A    between atoms: _158  and  _159
REMARK   74  A    between atoms: _158  and  _161
REMARK   75  A    between atoms: _161  and  _162
REMARK   76  A    between atoms: _165  and  _167
REMARK   77  A    between atoms: _167  and  _168
REMARK   78  A    between atoms: _167  and  _170
REMARK   79  A    between atoms: _173  and  _175
REMARK   80  A    between atoms: _175  and  _176
REMARK   81  A    between atoms: _175  and  _178
REMARK   82  A    between atoms: _178  and  _179
REMARK   83  A    between atoms: _182  and  _184
REMARK   84  A    between atoms: _184  and  _185
REMARK   85  A    between atoms: _184  and  _187
REMARK   86  A    between atoms: _187  and  _188
REMARK   87  A    between atoms: _191  and  _193
REMARK   88  A    between atoms: _193  and  _194
REMARK   89  A    between atoms: _196  and  _198
REMARK   90  A    between atoms: _198  and  _199
REMARK   91  A    between atoms: _198  and  _201
REMARK   92  A    between atoms: _201  and  _202
REMARK   93  A    between atoms: _205  and  _207
REMARK   94  A    between atoms: _207  and  _208
REMARK   95  A    between atoms: _210  and  _212
REMARK   96  A    between atoms: _212  and  _213
REMARK   97  A    between atoms: _212  and  _215
REMARK   98  A    between atoms: _215  and  _216
REMARK   99  A    between atoms: _216  and  _217
REMARK  100  A    between atoms: _219  and  _221
REMARK  101  A    between atoms: _221  and  _222
REMARK  102  A    between atoms: _221  and  _224
REMARK  103  A    between atoms: _224  and  _225
REMARK  104  A    between atoms: _228  and  _230
REMARK  105  A    between atoms: _230  and  _231
REMARK  106  A    between atoms: _230  and  _233
REMARK  107  A    between atoms: _233  and  _234
REMARK  108  A    between atoms: _237  and  _239
REMARK  109  A    between atoms: _239  and  _240
REMARK  110  A    between atoms: _239  and  _242
REMARK  111  A    between atoms: _242  and  _243
REMARK  112  A    between atoms: _246  and  _248
REMARK  113  A    between atoms: _248  and  _249
REMARK  114  A    between atoms: _248  and  _251
REMARK  115  A    between atoms: _251  and  _252
REMARK  116  A    between atoms: _257  and  _259
REMARK  117  A    between atoms: _259  and  _260
REMARK  118  A    between atoms: _259  and  _262
REMARK  119  A    between atoms: _262  and  _263
REMARK  120  A    between atoms: _268  and  _270
REMARK  121  A    between atoms: _270  and  _271
REMARK  122  A    between atoms: _270  and  _273
REMARK  123  A    between atoms: _273  and  _274
REMARK  124  A    between atoms: _277  and  _279
REMARK  125  A    between atoms: _279  and  _280
REMARK  126  A    between atoms: _282  and  _284
REMARK  127  A    between atoms: _284  and  _285
REMARK  128  A    between atoms: _284  and  _287
REMARK  129  A    between atoms: _287  and  _288
REMARK  130  A    between atoms: _291  and  _293
REMARK  131  A    between atoms: _293  and  _294
REMARK  132  A    between atoms: _293  and  _296
REMARK  133  A    between atoms: _296  and  _297
REMARK  134  A    between atoms: _300  and  _302
REMARK  135  A    between atoms: _302  and  _303
REMARK  136  A    between atoms: _306  and  _308
REMARK  137  A    between atoms: _308  and  _309
REMARK  138  A    between atoms: _308  and  _311
REMARK  139  A    between atoms: _311  and  _312
REMARK  140  A    between atoms: _312  and  _313
REMARK  141  A    between atoms: _313  and  _314
REMARK  142  A    between atoms: _314  and  _315
REMARK  143  A    between atoms: _319  and  _321
REMARK  144  A    between atoms: _321  and  _322
REMARK  145  A    between atoms: _321  and  _324
REMARK  146  A    between atoms: _324  and  _325
REMARK  147  A    between atoms: _327  and  _329
REMARK  148  A    between atoms: _329  and  _330
REMARK  149  A    between atoms: _332  and  _334
REMARK  150  A    between atoms: _334  and  _335
REMARK  151  A    between atoms: _334  and  _337
REMARK  152  A    between atoms: _337  and  _338
REMARK  153  A    between atoms: _341  and  _343
REMARK  154  A    between atoms: _343  and  _344
REMARK  155  A    between atoms: _343  and  _346
REMARK  156  A    between atoms: _346  and  _347
REMARK  157  A    between atoms: _350  and  _352
REMARK  158  A    between atoms: _352  and  _353
REMARK  159  A    between atoms: _355  and  _357
REMARK  160  A    between atoms: _357  and  _358
REMARK  161  A    between atoms: _357  and  _360
REMARK  162  A    between atoms: _360  and  _361
REMARK  163  A    between atoms: _367  and  _369
REMARK  164  A    between atoms: _369  and  _370
REMARK  165  A    between atoms: _372  and  _374
REMARK  166  A    between atoms: _374  and  _375
REMARK  167  A    between atoms: _374  and  _377
REMARK  168  A    between atoms: _380  and  _382
REMARK  169  A    between atoms: _382  and  _383
REMARK  170  A    between atoms: _385  and  _387
REMARK  171  A    between atoms: _387  and  _388
REMARK  172  A    between atoms: _387  and  _390
REMARK  173  A    between atoms: _390  and  _391
REMARK  174  A    between atoms: _397  and  _399
REMARK  175  A    between atoms: _399  and  _400
REMARK  176  A    between atoms: _399  and  _402
REMARK  177  A    between atoms: _402  and  _403
REMARK  178  A    between atoms: _408  and  _409
REMARK  179  A    between atoms: _411  and  _413
REMARK  180  A    between atoms: _413  and  _414
REMARK  181  A    between atoms: _413  and  _416
REMARK  182  A    between atoms: _416  and  _417
REMARK  183  A    between atoms: _419  and  _421
REMARK  184  A    between atoms: _421  and  _422
REMARK  185  A    between atoms: _425  and  _427
REMARK  186  A    between atoms: _427  and  _428
REMARK  187  A    between atoms: _427  and  _430
REMARK  188  A    between atoms: _433  and  _435
REMARK  189  A    between atoms: _435  and  _436
REMARK  190  A    between atoms: _435  and  _438
REMARK  191  A    between atoms: _438  and  _439
REMARK  192  A    between atoms: _442  and  _444
REMARK  193  A    between atoms: _444  and  _445
REMARK  194  A    between atoms: _444  and  _447
REMARK  195  A    between atoms: _447  and  _448
REMARK  196  A    between atoms: _451  and  _453
REMARK  197  A    between atoms: _453  and  _454
REMARK  198  A    between atoms: _453  and  _456
REMARK  199  A    between atoms: _456  and  _457
REMARK  200  A    between atoms: _457  and  _458
REMARK  201  A    between atoms: _458  and  _459
REMARK  202  A    between atoms: _459  and  _460
REMARK  203  A    between atoms: _464  and  _466
REMARK  204  A    between atoms: _466  and  _467
REMARK  205  A    between atoms: _466  and  _469
REMARK  206  A    between atoms: _469  and  _470
REMARK  207  A    between atoms: _475  and  _477
REMARK  208  A    between atoms: _477  and  _478
REMARK  209  A    between atoms: _480  and  _482
REMARK  210  A    between atoms: _482  and  _483
REMARK  211  A    between atoms: _482  and  _485
REMARK  212  A    between atoms: _485  and  _486
REMARK  213  A    between atoms: _489  and  _491
REMARK  214  A    between atoms: _491  and  _492
REMARK  215  A    between atoms: _491  and  _494
REMARK  216  A    between atoms: _494  and  _495
REMARK  217  A    between atoms: _495  and  _496
REMARK  218  A    between atoms: _496  and  _497
REMARK  219  A    between atoms: _497  and  _498
REMARK  220  A    between atoms: _502  and  _504
REMARK  221  A    between atoms: _504  and  _505
REMARK  222  A    between atoms: _504  and  _507
REMARK  223  A    between atoms: _510  and  _512
REMARK  224  A    between atoms: _512  and  _513
REMARK  225  A    between atoms: _512  and  _515
REMARK  226  A    between atoms: _515  and  _516
REMARK  227  A    between atoms: _516  and  _517
REMARK  228  A    between atoms: _517  and  _518
REMARK  229  A    between atoms: _518  and  _519
REMARK                            x       y       z     vdW  Elec       q    Type
REMARK                         _______ _______ _______ _____ _____    ______ ____
ROOT
ATOM      1  O   HOH     1      24.152  24.106  19.126  0.00  0.00    +0.000 OA
ENDROOT
TORSDOF 0
REMARK  Name = ../refined-set-2016/2qg0/2qg0_pocket.pdb
REMARK  229 active torsions:
REMARK  status: ('A' for Active; 'I' for Inactive)
REMARK    1  A    between atoms: _1  and  _3
REMARK    2  A    between atoms: _3  and  _4
REMARK    3  A    between atoms: _3  and  _6
REMARK    4  A    between atoms: _6  and  _7
REMARK    5  A    between atoms: _10  and  _12
REMARK    6  A    between atoms: _12  and  _13
REMARK    7  A    between atoms: _12  and  _15
REMARK    8  A    between atoms: _15  and  _16
REMARK    9  A    between atoms: _19  and  _21
REMARK   10  A    between atoms: _21  and  _22
REMARK   11  A    between atoms: _21  and  _24
REMARK   12  A    between atoms: _24  and  _25
REMARK   13  A    between atoms: _25  and  _26
REMARK   14  A    between atoms: _29  and  _31
REMARK   15  A    between atoms: _31  and  _32
REMARK   16  A    between atoms: _31  and  _34
REMARK   17  A    between atoms: _34  and  _35
REMARK   18  A    between atoms: _38  and  _40
REMARK   19  A    between atoms: _40  and  _41
REMARK   20  A    between atoms: _40  and  _43
REMARK   21  A    between atoms: _43  and  _44
REMARK   22  A    between atoms: _47  and  _49
REMARK   23  A    between atoms: _49  and  _50
REMARK   24  A    between atoms: _49  and  _52
REMARK   25  A    between atoms: _52  and  _53
REMARK   26  A    between atoms: _55  and  _57
REMARK   27  A    between atoms: _57  and  _58
REMARK   28  A    between atoms: _57  and  _60
REMARK   29  A    between atoms: _60  and  _61
REMARK   30  A    between atoms: _66  and  _68
REMARK   31  A    between atoms: _68  and  _69
REMARK   32  A    between atoms: _68  and  _71
REMARK   33  A    between atoms: _71  and  _72
REMARK   34  A    between atoms: _74  and  _76
REMARK   35  A    between atoms: _76  and  _77
REMARK   36  A    between atoms: _76  and  _79
REMARK   37  A    between atoms: _79  and  _80
REMARK   38  A    between atoms: _82  and  _84
REMARK   39  A    between atoms: _84  and  _85
REMARK   40  A    between atoms: _84  and  _87
REMARK   41  A    between atoms: _87  and  _88
REMARK   42  A    between atoms: _91  and  _93
REMARK   43  A    between atoms: _93  and  _94
REMARK   44  A    between atoms: _97  and  _99
REMARK   45  A    between atoms: _99  and  _100
REMARK   46  A    between atoms: _99  and  _102
REMARK   47  A    between atoms: _102  and  _103
REMARK   48  A    between atoms: _106  and  _108
REMARK   49  A    between atoms: _108  and  _109
REMARK   50  A    between atoms: _108  and  _111
REMARK   51  A    between atoms: _111  and  _112
REMARK   52  A    between atoms: _115  and  _117
REMARK   53  A    between atoms: _117  and  _118
REMARK   54  A    between atoms: _117  and  _120
REMARK   55  A    between atoms: _120  and  _121
REMARK   56  A    between atoms: _121  and  _122
REMARK   57  A    between atoms: _122  and  _123
REMARK   58  A    between atoms: _123  and  _124
REMARK   59  A    between atoms: _128  and  _130
REMARK   60  A    between atoms: _130  and  _131
REMARK   61  A    between atoms: _130  and  _133
REMARK   62  A    between atoms: _133  and  _134
REMARK   63  A    between atoms: _137  and  _139
REMARK   64  A    between atoms: _139  and  _140
REMARK   65  A    between atoms: _139  and  _142
REMARK   66  A    between atoms: _142  and  _143
REMARK   67  A    between atoms: _143  and  _144
REMARK   68  A    between atoms: _147  and  _149
REMARK   69  A    between atoms: _149  and  _150
REMARK   70  A    between atoms: _149  and  _152
REMARK   71  A    between atoms: _152  and  _153
REMARK   72  A    between atoms: _156  and  _158
REMARK   73  A    between atoms: _158  and  _159
REMARK   74  A    between atoms: _158  and  _161
REMARK   75  A    between atoms: _161  and  _162
REMARK   76  A    between atoms: _165  and  _167
REMARK   77  A    between atoms: _167  and  _168
REMARK   78  A    between atoms: _167  and  _170
REMARK   79  A    between atoms: _173  and  _175
REMARK   80  A    between atoms: _175  and  _176
REMARK   81  A    between atoms: _175  and  _178
REMARK   82  A    between atoms: _178  and  _179
REMARK   83  A    between atoms: _182  and  _184
REMARK   84  A    between atoms: _184  and  _185
REMARK   85  A    between atoms: _184  and  _187
REMARK   86  A    between atoms: _187  and  _188
REMARK   87  A    between atoms: _191  and  _193
REMARK   88  A    between atoms: _193  and  _194
REMARK   89  A    between atoms: _196  and  _198
REMARK   90  A    between atoms: _198  and  _199
REMARK   91  A    between atoms: _198  and  _201
REMARK   92  A    between atoms: _201  and  _202
REMARK   93  A    between atoms: _205  and  _207
REMARK   94  A    between atoms: _207  and  _208
REMARK   95  A    between atoms: _210  and  _212
REMARK   96  A    between atoms: _212  and  _213
REMARK   97  A    between atoms: _212  and  _215
REMARK   98  A    between atoms: _215  and  _216
REMARK   99  A    between atoms: _216  and  _217
REMARK  100  A    between atoms: _219  and  _221
REMARK  101  A    between atoms: _221  and  _222
REMARK  102  A    between atoms: _221  and  _224
REMARK  103  A    between atoms: _224  and  _225
REMARK  104  A    between atoms: _228  and  _230
REMARK  105  A    between atoms: _230  and  _231
REMARK  106  A    between atoms: _230  and  _233
REMARK  107  A    between atoms: _233  and  _234
REMARK  108  A    between atoms: _237  and  _239
REMARK  109  A    between atoms: _239  and  _240
REMARK  110  A    between atoms: _239  and  _242
REMARK  111  A    between atoms: _242  and  _243
REMARK  112  A    between atoms: _246  and  _248
REMARK  113  A    between atoms: _248  and  _249
REMARK  114  A    between atoms: _248  and  _251
REMARK  115  A    between atoms: _251  and  _252
REMARK  116  A    between atoms: _257  and  _259
REMARK  117  A    between atoms: _259  and  _260
REMARK  118  A    between atoms: _259  and  _262
REMARK  119  A    between atoms: _262  and  _263
REMARK  120  A    between atoms: _268  and  _270
REMARK  121  A    between atoms: _270  and  _271
REMARK  122  A    between atoms: _270  and  _273
REMARK  123  A    between atoms: _273  and  _274
REMARK  124  A    between atoms: _277  and  _279
REMARK  125  A    between atoms: _279  and  _280
REMARK  126  A    between atoms: _282  and  _284
REMARK  127  A    between atoms: _284  and  _285
REMARK  128  A    between atoms: _284  and  _287
REMARK  129  A    between atoms: _287  and  _288
REMARK  130  A    between atoms: _291  and  _293
REMARK  131  A    between atoms: _293  and  _294
REMARK  132  A    between atoms: _293  and  _296
REMARK  133  A    between atoms: _296  and  _297
REMARK  134  A    between atoms: _300  and  _302
REMARK  135  A    between atoms: _302  and  _303
REMARK  136  A    between atoms: _306  and  _308
REMARK  137  A    between atoms: _308  and  _309
REMARK  138  A    between atoms: _308  and  _311
REMARK  139  A    between atoms: _311  and  _312
REMARK  140  A    between atoms: _312  and  _313
REMARK  141  A    between atoms: _313  and  _314
REMARK  142  A    between atoms: _314  and  _315
REMARK  143  A    between atoms: _319  and  _321
REMARK  144  A    between atoms: _321  and  _322
REMARK  145  A    between atoms: _321  and  _324
REMARK  146  A    between atoms: _324  and  _325
REMARK  147  A    between atoms: _327  and  _329
REMARK  148  A    between atoms: _329  and  _330
REMARK  149  A    between atoms: _332  and  _334
REMARK  150  A    between atoms: _334  and  _335
REMARK  151  A    between atoms: _334  and  _337
REMARK  152  A    between atoms: _337  and  _338
REMARK  153  A    between atoms: _341  and  _343
REMARK  154  A    between atoms: _343  and  _344
REMARK  155  A    between atoms: _343  and  _346
REMARK  156  A    between atoms: _346  and  _347
REMARK  157  A    between atoms: _350  and  _352
REMARK  158  A    between atoms: _352  and  _353
REMARK  159  A    between atoms: _355  and  _357
REMARK  160  A    between atoms: _357  and  _358
REMARK  161  A    between atoms: _357  and  _360
REMARK  162  A    between atoms: _360  and  _361
REMARK  163  A    between atoms: _367  and  _369
REMARK  164  A    between atoms: _369  and  _370
REMARK  165  A    between atoms: _372  and  _374
REMARK  166  A    between atoms: _374  and  _375
REMARK  167  A    between atoms: _374  and  _377
REMARK  168  A    between atoms: _380  and  _382
REMARK  169  A    between atoms: _382  and  _383
REMARK  170  A    between atoms: _385  and  _387
REMARK  171  A    between atoms: _387  and  _388
REMARK  172  A    between atoms: _387  and  _390
REMARK  173  A    between atoms: _390  and  _391
REMARK  174  A    between atoms: _397  and  _399
REMARK  175  A    between atoms: _399  and  _400
REMARK  176  A    between atoms: _399  and  _402
REMARK  177  A    between atoms: _402  and  _403
REMARK  178  A    between atoms: _408  and  _409
REMARK  179  A    between atoms: _411  and  _413
REMARK  180  A    between atoms: _413  and  _414
REMARK  181  A    between atoms: _413  and  _416
REMARK  182  A    between atoms: _416  and  _417
REMARK  183  A    between atoms: _419  and  _421
REMARK  184  A    between atoms: _421  and  _422
REMARK  185  A    between atoms: _425  and  _427
REMARK  186  A    between atoms: _427  and  _428
REMARK  187  A    between atoms: _427  and  _430
REMARK  188  A    between atoms: _433  and  _435
REMARK  189  A    between atoms: _435  and  _436
REMARK  190  A    between atoms: _435  and  _438
REMARK  191  A    between atoms: _438  and  _439
REMARK  192  A    between atoms: _442  and  _444
REMARK  193  A    between atoms: _444  and  _445
REMARK  194  A    between atoms: _444  and  _447
REMARK  195  A    between atoms: _447  and  _448
REMARK  196  A    between atoms: _451  and  _453
REMARK  197  A    between atoms: _453  and  _454
REMARK  198  A    between atoms: _453  and  _456
REMARK  199  A    between atoms: _456  and  _457
REMARK  200  A    between atoms: _457  and  _458
REMARK  201  A    between atoms: _458  and  _459
REMARK  202  A    between atoms: _459  and  _460
REMARK  203  A    between atoms: _464  and  _466
REMARK  204  A    between atoms: _466  and  _467
REMARK  205  A    between atoms: _466  and  _469
REMARK  206  A    between atoms: _469  and  _470
REMARK  207  A    between atoms: _475  and  _477
REMARK  208  A    between atoms: _477  and  _478
REMARK  209  A    between atoms: _480  and  _482
REMARK  210  A    between atoms: _482  and  _483
REMARK  211  A    between atoms: _482  and  _485
REMARK  212  A    between atoms: _485  and  _486
REMARK  213  A    between atoms: _489  and  _491
REMARK  214  A    between atoms: _491  and  _492
REMARK  215  A    between atoms: _491  and  _494
REMARK  216  A    between atoms: _494  and  _495
REMARK  217  A    between atoms: _495  and  _496
REMARK  218  A    between atoms: _496  and  _497
REMARK  219  A    between atoms: _497  and  _498
REMARK  220  A    between atoms: _502  and  _504
REMARK  221  A    between atoms: _504  and  _505
REMARK  222  A    between atoms: _504  and  _507
REMARK  223  A    between atoms: _510  and  _512
REMARK  224  A    between atoms: _512  and  _513
REMARK  225  A    between atoms: _512  and  _515
REMARK  226  A    between atoms: _515  and  _516
REMARK  227  A    between atoms: _516  and  _517
REMARK  228  A    between atoms: _517  and  _518
REMARK  229  A    between atoms: _518  and  _519
REMARK                            x       y       z     vdW  Elec       q    Type
REMARK                         _______ _______ _______ _____ _____    ______ ____
ROOT
ATOM      1  O   HOH     1      14.098  19.450   9.959  0.00  0.00    +0.000 OA
ENDROOT
TORSDOF 0
REMARK  Name = ../refined-set-2016/2qg0/2qg0_pocket.pdb
REMARK  229 active torsions:
REMARK  status: ('A' for Active; 'I' for Inactive)
REMARK    1  A    between atoms: _1  and  _3
REMARK    2  A    between atoms: _3  and  _4
REMARK    3  A    between atoms: _3  and  _6
REMARK    4  A    between atoms: _6  and  _7
REMARK    5  A    between atoms: _10  and  _12
REMARK    6  A    between atoms: _12  and  _13
REMARK    7  A    between atoms: _12  and  _15
REMARK    8  A    between atoms: _15  and  _16
REMARK    9  A    between atoms: _19  and  _21
REMARK   10  A    between atoms: _21  and  _22
REMARK   11  A    between atoms: _21  and  _24
REMARK   12  A    between atoms: _24  and  _25
REMARK   13  A    between atoms: _25  and  _26
REMARK   14  A    between atoms: _29  and  _31
REMARK   15  A    between atoms: _31  and  _32
REMARK   16  A    between atoms: _31  and  _34
REMARK   17  A    between atoms: _34  and  _35
REMARK   18  A    between atoms: _38  and  _40
REMARK   19  A    between atoms: _40  and  _41
REMARK   20  A    between atoms: _40  and  _43
REMARK   21  A    between atoms: _43  and  _44
REMARK   22  A    between atoms: _47  and  _49
REMARK   23  A    between atoms: _49  and  _50
REMARK   24  A    between atoms: _49  and  _52
REMARK   25  A    between atoms: _52  and  _53
REMARK   26  A    between atoms: _55  and  _57
REMARK   27  A    between atoms: _57  and  _58
REMARK   28  A    between atoms: _57  and  _60
REMARK   29  A    between atoms: _60  and  _61
REMARK   30  A    between atoms: _66  and  _68
REMARK   31  A    between atoms: _68  and  _69
REMARK   32  A    between atoms: _68  and  _71
REMARK   33  A    between atoms: _71  and  _72
REMARK   34  A    between atoms: _74  and  _76
REMARK   35  A    between atoms: _76  and  _77
REMARK   36  A    between atoms: _76  and  _79
REMARK   37  A    between atoms: _79  and  _80
REMARK   38  A    between atoms: _82  and  _84
REMARK   39  A    between atoms: _84  and  _85
REMARK   40  A    between atoms: _84  and  _87
REMARK   41  A    between atoms: _87  and  _88
REMARK   42  A    between atoms: _91  and  _93
REMARK   43  A    between atoms: _93  and  _94
REMARK   44  A    between atoms: _97  and  _99
REMARK   45  A    between atoms: _99  and  _100
REMARK   46  A    between atoms: _99  and  _102
REMARK   47  A    between atoms: _102  and  _103
REMARK   48  A    between atoms: _106  and  _108
REMARK   49  A    between atoms: _108  and  _109
REMARK   50  A    between atoms: _108  and  _111
REMARK   51  A    between atoms: _111  and  _112
REMARK   52  A    between atoms: _115  and  _117
REMARK   53  A    between atoms: _117  and  _118
REMARK   54  A    between atoms: _117  and  _120
REMARK   55  A    between atoms: _120  and  _121
REMARK   56  A    between atoms: _121  and  _122
REMARK   57  A    between atoms: _122  and  _123
REMARK   58  A    between atoms: _123  and  _124
REMARK   59  A    between atoms: _128  and  _130
REMARK   60  A    between atoms: _130  and  _131
REMARK   61  A    between atoms: _130  and  _133
REMARK   62  A    between atoms: _133  and  _134
REMARK   63  A    between atoms: _137  and  _139
REMARK   64  A    between atoms: _139  and  _140
REMARK   65  A    between atoms: _139  and  _142
REMARK   66  A    between atoms: _142  and  _143
REMARK   67  A    between atoms: _143  and  _144
REMARK   68  A    between atoms: _147  and  _149
REMARK   69  A    between atoms: _149  and  _150
REMARK   70  A    between atoms: _149  and  _152
REMARK   71  A    between atoms: _152  and  _153
REMARK   72  A    between atoms: _156  and  _158
REMARK   73  A    between atoms: _158  and  _159
REMARK   74  A    between atoms: _158  and  _161
REMARK   75  A    between atoms: _161  and  _162
REMARK   76  A    between atoms: _165  and  _167
REMARK   77  A    between atoms: _167  and  _168
REMARK   78  A    between atoms: _167  and  _170
REMARK   79  A    between atoms: _173  and  _175
REMARK   80  A    between atoms: _175  and  _176
REMARK   81  A    between atoms: _175  and  _178
REMARK   82  A    between atoms: _178  and  _179
REMARK   83  A    between atoms: _182  and  _184
REMARK   84  A    between atoms: _184  and  _185
REMARK   85  A    between atoms: _184  and  _187
REMARK   86  A    between atoms: _187  and  _188
REMARK   87  A    between atoms: _191  and  _193
REMARK   88  A    between atoms: _193  and  _194
REMARK   89  A    between atoms: _196  and  _198
REMARK   90  A    between atoms: _198  and  _199
REMARK   91  A    between atoms: _198  and  _201
REMARK   92  A    between atoms: _201  and  _202
REMARK   93  A    between atoms: _205  and  _207
REMARK   94  A    between atoms: _207  and  _208
REMARK   95  A    between atoms: _210  and  _212
REMARK   96  A    between atoms: _212  and  _213
REMARK   97  A    between atoms: _212  and  _215
REMARK   98  A    between atoms: _215  and  _216
REMARK   99  A    between atoms: _216  and  _217
REMARK  100  A    between atoms: _219  and  _221
REMARK  101  A    between atoms: _221  and  _222
REMARK  102  A    between atoms: _221  and  _224
REMARK  103  A    between atoms: _224  and  _225
REMARK  104  A    between atoms: _228  and  _230
REMARK  105  A    between atoms: _230  and  _231
REMARK  106  A    between atoms: _230  and  _233
REMARK  107  A    between atoms: _233  and  _234
REMARK  108  A    between atoms: _237  and  _239
REMARK  109  A    between atoms: _239  and  _240
REMARK  110  A    between atoms: _239  and  _242
REMARK  111  A    between atoms: _242  and  _243
REMARK  112  A    between atoms: _246  and  _248
REMARK  113  A    between atoms: _248  and  _249
REMARK  114  A    between atoms: _248  and  _251
REMARK  115  A    between atoms: _251  and  _252
REMARK  116  A    between atoms: _257  and  _259
REMARK  117  A    between atoms: _259  and  _260
REMARK  118  A    between atoms: _259  and  _262
REMARK  119  A    between atoms: _262  and  _263
REMARK  120  A    between atoms: _268  and  _270
REMARK  121  A    between atoms: _270  and  _271
REMARK  122  A    between atoms: _270  and  _273
REMARK  123  A    between atoms: _273  and  _274
REMARK  124  A    between atoms: _277  and  _279
REMARK  125  A    between atoms: _279  and  _280
REMARK  126  A    between atoms: _282  and  _284
REMARK  127  A    between atoms: _284  and  _285
REMARK  128  A    between atoms: _284  and  _287
REMARK  129  A    between atoms: _287  and  _288
REMARK  130  A    between atoms: _291  and  _293
REMARK  131  A    between atoms: _293  and  _294
REMARK  132  A    between atoms: _293  and  _296
REMARK  133  A    between atoms: _296  and  _297
REMARK  134  A    between atoms: _300  and  _302
REMARK  135  A    between atoms: _302  and  _303
REMARK  136  A    between atoms: _306  and  _308
REMARK  137  A    between atoms: _308  and  _309
REMARK  138  A    between atoms: _308  and  _311
REMARK  139  A    between atoms: _311  and  _312
REMARK  140  A    between atoms: _312  and  _313
REMARK  141  A    between atoms: _313  and  _314
REMARK  142  A    between atoms: _314  and  _315
REMARK  143  A    between atoms: _319  and  _321
REMARK  144  A    between atoms: _321  and  _322
REMARK  145  A    between atoms: _321  and  _324
REMARK  146  A    between atoms: _324  and  _325
REMARK  147  A    between atoms: _327  and  _329
REMARK  148  A    between atoms: _329  and  _330
REMARK  149  A    between atoms: _332  and  _334
REMARK  150  A    between atoms: _334  and  _335
REMARK  151  A    between atoms: _334  and  _337
REMARK  152  A    between atoms: _337  and  _338
REMARK  153  A    between atoms: _341  and  _343
REMARK  154  A    between atoms: _343  and  _344
REMARK  155  A    between atoms: _343  and  _346
REMARK  156  A    between atoms: _346  and  _347
REMARK  157  A    between atoms: _350  and  _352
REMARK  158  A    between atoms: _352  and  _353
REMARK  159  A    between atoms: _355  and  _357
REMARK  160  A    between atoms: _357  and  _358
REMARK  161  A    between atoms: _357  and  _360
REMARK  162  A    between atoms: _360  and  _361
REMARK  163  A    between atoms: _367  and  _369
REMARK  164  A    between atoms: _369  and  _370
REMARK  165  A    between atoms: _372  and  _374
REMARK  166  A    between atoms: _374  and  _375
REMARK  167  A    between atoms: _374  and  _377
REMARK  168  A    between atoms: _380  and  _382
REMARK  169  A    between atoms: _382  and  _383
REMARK  170  A    between atoms: _385  and  _387
REMARK  171  A    between atoms: _387  and  _388
REMARK  172  A    between atoms: _387  and  _390
REMARK  173  A    between atoms: _390  and  _391
REMARK  174  A    between atoms: _397  and  _399
REMARK  175  A    between atoms: _399  and  _400
REMARK  176  A    between atoms: _399  and  _402
REMARK  177  A    between atoms: _402  and  _403
REMARK  178  A    between atoms: _408  and  _409
REMARK  179  A    between atoms: _411  and  _413
REMARK  180  A    between atoms: _413  and  _414
REMARK  181  A    between atoms: _413  and  _416
REMARK  182  A    between atoms: _416  and  _417
REMARK  183  A    between atoms: _419  and  _421
REMARK  184  A    between atoms: _421  and  _422
REMARK  185  A    between atoms: _425  and  _427
REMARK  186  A    between atoms: _427  and  _428
REMARK  187  A    between atoms: _427  and  _430
REMARK  188  A    between atoms: _433  and  _435
REMARK  189  A    between atoms: _435  and  _436
REMARK  190  A    between atoms: _435  and  _438
REMARK  191  A    between atoms: _438  and  _439
REMARK  192  A    between atoms: _442  and  _444
REMARK  193  A    between atoms: _444  and  _445
REMARK  194  A    between atoms: _444  and  _447
REMARK  195  A    between atoms: _447  and  _448
REMARK  196  A    between atoms: _451  and  _453
REMARK  197  A    between atoms: _453  and  _454
REMARK  198  A    between atoms: _453  and  _456
REMARK  199  A    between atoms: _456  and  _457
REMARK  200  A    between atoms: _457  and  _458
REMARK  201  A    between atoms: _458  and  _459
REMARK  202  A    between atoms: _459  and  _460
REMARK  203  A    between atoms: _464  and  _466
REMARK  204  A    between atoms: _466  and  _467
REMARK  205  A    between atoms: _466  and  _469
REMARK  206  A    between atoms: _469  and  _470
REMARK  207  A    between atoms: _475  and  _477
REMARK  208  A    between atoms: _477  and  _478
REMARK  209  A    between atoms: _480  and  _482
REMARK  210  A    between atoms: _482  and  _483
REMARK  211  A    between atoms: _482  and  _485
REMARK  212  A    between atoms: _485  and  _486
REMARK  213  A    between atoms: _489  and  _491
REMARK  214  A    between atoms: _491  and  _492
REMARK  215  A    between atoms: _491  and  _494
REMARK  216  A    between atoms: _494  and  _495
REMARK  217  A    between atoms: _495  and  _496
REMARK  218  A    between atoms: _496  and  _497
REMARK  219  A    between atoms: _497  and  _498
REMARK  220  A    between atoms: _502  and  _504
REMARK  221  A    between atoms: _504  and  _505
REMARK  222  A    between atoms: _504  and  _507
REMARK  223  A    between atoms: _510  and  _512
REMARK  224  A    between atoms: _512  and  _513
REMARK  225  A    between atoms: _512  and  _515
REMARK  226  A    between atoms: _515  and  _516
REMARK  227  A    between atoms: _516  and  _517
REMARK  228  A    between atoms: _517  and  _518
REMARK  229  A    between atoms: _518  and  _519
REMARK                            x       y       z     vdW  Elec       q    Type
REMARK                         _______ _______ _______ _____ _____    ______ ____
ROOT
ATOM      1  O   HOH     1      23.666  24.331   8.172  0.00  0.00    +0.000 OA
ENDROOT
TORSDOF 0
REMARK  Name = ../refined-set-2016/2qg0/2qg0_pocket.pdb
REMARK  229 active torsions:
REMARK  status: ('A' for Active; 'I' for Inactive)
REMARK    1  A    between atoms: _1  and  _3
REMARK    2  A    between atoms: _3  and  _4
REMARK    3  A    between atoms: _3  and  _6
REMARK    4  A    between atoms: _6  and  _7
REMARK    5  A    between atoms: _10  and  _12
REMARK    6  A    between atoms: _12  and  _13
REMARK    7  A    between atoms: _12  and  _15
REMARK    8  A    between atoms: _15  and  _16
REMARK    9  A    between atoms: _19  and  _21
REMARK   10  A    between atoms: _21  and  _22
REMARK   11  A    between atoms: _21  and  _24
REMARK   12  A    between atoms: _24  and  _25
REMARK   13  A    between atoms: _25  and  _26
REMARK   14  A    between atoms: _29  and  _31
REMARK   15  A    between atoms: _31  and  _32
REMARK   16  A    between atoms: _31  and  _34
REMARK   17  A    between atoms: _34  and  _35
REMARK   18  A    between atoms: _38  and  _40
REMARK   19  A    between atoms: _40  and  _41
REMARK   20  A    between atoms: _40  and  _43
REMARK   21  A    between atoms: _43  and  _44
REMARK   22  A    between atoms: _47  and  _49
REMARK   23  A    between atoms: _49  and  _50
REMARK   24  A    between atoms: _49  and  _52
REMARK   25  A    between atoms: _52  and  _53
REMARK   26  A    between atoms: _55  and  _57
REMARK   27  A    between atoms: _57  and  _58
REMARK   28  A    between atoms: _57  and  _60
REMARK   29  A    between atoms: _60  and  _61
REMARK   30  A    between atoms: _66  and  _68
REMARK   31  A    between atoms: _68  and  _69
REMARK   32  A    between atoms: _68  and  _71
REMARK   33  A    between atoms: _71  and  _72
REMARK   34  A    between atoms: _74  and  _76
REMARK   35  A    between atoms: _76  and  _77
REMARK   36  A    between atoms: _76  and  _79
REMARK   37  A    between atoms: _79  and  _80
REMARK   38  A    between atoms: _82  and  _84
REMARK   39  A    between atoms: _84  and  _85
REMARK   40  A    between atoms: _84  and  _87
REMARK   41  A    between atoms: _87  and  _88
REMARK   42  A    between atoms: _91  and  _93
REMARK   43  A    between atoms: _93  and  _94
REMARK   44  A    between atoms: _97  and  _99
REMARK   45  A    between atoms: _99  and  _100
REMARK   46  A    between atoms: _99  and  _102
REMARK   47  A    between atoms: _102  and  _103
REMARK   48  A    between atoms: _106  and  _108
REMARK   49  A    between atoms: _108  and  _109
REMARK   50  A    between atoms: _108  and  _111
REMARK   51  A    between atoms: _111  and  _112
REMARK   52  A    between atoms: _115  and  _117
REMARK   53  A    between atoms: _117  and  _118
REMARK   54  A    between atoms: _117  and  _120
REMARK   55  A    between atoms: _120  and  _121
REMARK   56  A    between atoms: _121  and  _122
REMARK   57  A    between atoms: _122  and  _123
REMARK   58  A    between atoms: _123  and  _124
REMARK   59  A    between atoms: _128  and  _130
REMARK   60  A    between atoms: _130  and  _131
REMARK   61  A    between atoms: _130  and  _133
REMARK   62  A    between atoms: _133  and  _134
REMARK   63  A    between atoms: _137  and  _139
REMARK   64  A    between atoms: _139  and  _140
REMARK   65  A    between atoms: _139  and  _142
REMARK   66  A    between atoms: _142  and  _143
REMARK   67  A    between atoms: _143  and  _144
REMARK   68  A    between atoms: _147  and  _149
REMARK   69  A    between atoms: _149  and  _150
REMARK   70  A    between atoms: _149  and  _152
REMARK   71  A    between atoms: _152  and  _153
REMARK   72  A    between atoms: _156  and  _158
REMARK   73  A    between atoms: _158  and  _159
REMARK   74  A    between atoms: _158  and  _161
REMARK   75  A    between atoms: _161  and  _162
REMARK   76  A    between atoms: _165  and  _167
REMARK   77  A    between atoms: _167  and  _168
REMARK   78  A    between atoms: _167  and  _170
REMARK   79  A    between atoms: _173  and  _175
REMARK   80  A    between atoms: _175  and  _176
REMARK   81  A    between atoms: _175  and  _178
REMARK   82  A    between atoms: _178  and  _179
REMARK   83  A    between atoms: _182  and  _184
REMARK   84  A    between atoms: _184  and  _185
REMARK   85  A    between atoms: _184  and  _187
REMARK   86  A    between atoms: _187  and  _188
REMARK   87  A    between atoms: _191  and  _193
REMARK   88  A    between atoms: _193  and  _194
REMARK   89  A    between atoms: _196  and  _198
REMARK   90  A    between atoms: _198  and  _199
REMARK   91  A    between atoms: _198  and  _201
REMARK   92  A    between atoms: _201  and  _202
REMARK   93  A    between atoms: _205  and  _207
REMARK   94  A    between atoms: _207  and  _208
REMARK   95  A    between atoms: _210  and  _212
REMARK   96  A    between atoms: _212  and  _213
REMARK   97  A    between atoms: _212  and  _215
REMARK   98  A    between atoms: _215  and  _216
REMARK   99  A    between atoms: _216  and  _217
REMARK  100  A    between atoms: _219  and  _221
REMARK  101  A    between atoms: _221  and  _222
REMARK  102  A    between atoms: _221  and  _224
REMARK  103  A    between atoms: _224  and  _225
REMARK  104  A    between atoms: _228  and  _230
REMARK  105  A    between atoms: _230  and  _231
REMARK  106  A    between atoms: _230  and  _233
REMARK  107  A    between atoms: _233  and  _234
REMARK  108  A    between atoms: _237  and  _239
REMARK  109  A    between atoms: _239  and  _240
REMARK  110  A    between atoms: _239  and  _242
REMARK  111  A    between atoms: _242  and  _243
REMARK  112  A    between atoms: _246  and  _248
REMARK  113  A    between atoms: _248  and  _249
REMARK  114  A    between atoms: _248  and  _251
REMARK  115  A    between atoms: _251  and  _252
REMARK  116  A    between atoms: _257  and  _259
REMARK  117  A    between atoms: _259  and  _260
REMARK  118  A    between atoms: _259  and  _262
REMARK  119  A    between atoms: _262  and  _263
REMARK  120  A    between atoms: _268  and  _270
REMARK  121  A    between atoms: _270  and  _271
REMARK  122  A    between atoms: _270  and  _273
REMARK  123  A    between atoms: _273  and  _274
REMARK  124  A    between atoms: _277  and  _279
REMARK  125  A    between atoms: _279  and  _280
REMARK  126  A    between atoms: _282  and  _284
REMARK  127  A    between atoms: _284  and  _285
REMARK  128  A    between atoms: _284  and  _287
REMARK  129  A    between atoms: _287  and  _288
REMARK  130  A    between atoms: _291  and  _293
REMARK  131  A    between atoms: _293  and  _294
REMARK  132  A    between atoms: _293  and  _296
REMARK  133  A    between atoms: _296  and  _297
REMARK  134  A    between atoms: _300  and  _302
REMARK  135  A    between atoms: _302  and  _303
REMARK  136  A    between atoms: _306  and  _308
REMARK  137  A    between atoms: _308  and  _309
REMARK  138  A    between atoms: _308  and  _311
REMARK  139  A    between atoms: _311  and  _312
REMARK  140  A    between atoms: _312  and  _313
REMARK  141  A    between atoms: _313  and  _314
REMARK  142  A    between atoms: _314  and  _315
REMARK  143  A    between atoms: _319  and  _321
REMARK  144  A    between atoms: _321  and  _322
REMARK  145  A    between atoms: _321  and  _324
REMARK  146  A    between atoms: _324  and  _325
REMARK  147  A    between atoms: _327  and  _329
REMARK  148  A    between atoms: _329  and  _330
REMARK  149  A    between atoms: _332  and  _334
REMARK  150  A    between atoms: _334  and  _335
REMARK  151  A    between atoms: _334  and  _337
REMARK  152  A    between atoms: _337  and  _338
REMARK  153  A    between atoms: _341  and  _343
REMARK  154  A    between atoms: _343  and  _344
REMARK  155  A    between atoms: _343  and  _346
REMARK  156  A    between atoms: _346  and  _347
REMARK  157  A    between atoms: _350  and  _352
REMARK  158  A    between atoms: _352  and  _353
REMARK  159  A    between atoms: _355  and  _357
REMARK  160  A    between atoms: _357  and  _358
REMARK  161  A    between atoms: _357  and  _360
REMARK  162  A    between atoms: _360  and  _361
REMARK  163  A    between atoms: _367  and  _369
REMARK  164  A    between atoms: _369  and  _370
REMARK  165  A    between atoms: _372  and  _374
REMARK  166  A    between atoms: _374  and  _375
REMARK  167  A    between atoms: _374  and  _377
REMARK  168  A    between atoms: _380  and  _382
REMARK  169  A    between atoms: _382  and  _383
REMARK  170  A    between atoms: _385  and  _387
REMARK  171  A    between atoms: _387  and  _388
REMARK  172  A    between atoms: _387  and  _390
REMARK  173  A    between atoms: _390  and  _391
REMARK  174  A    between atoms: _397  and  _399
REMARK  175  A    between atoms: _399  and  _400
REMARK  176  A    between atoms: _399  and  _402
REMARK  177  A    between atoms: _402  and  _403
REMARK  178  A    between atoms: _408  and  _409
REMARK  179  A    between atoms: _411  and  _413
REMARK  180  A    between atoms: _413  and  _414
REMARK  181  A    between atoms: _413  and  _416
REMARK  182  A    between atoms: _416  and  _417
REMARK  183  A    between atoms: _419  and  _421
REMARK  184  A    between atoms: _421  and  _422
REMARK  185  A    between atoms: _425  and  _427
REMARK  186  A    between atoms: _427  and  _428
REMARK  187  A    between atoms: _427  and  _430
REMARK  188  A    between atoms: _433  and  _435
REMARK  189  A    between atoms: _435  and  _436
REMARK  190  A    between atoms: _435  and  _438
REMARK  191  A    between atoms: _438  and  _439
REMARK  192  A    between atoms: _442  and  _444
REMARK  193  A    between atoms: _444  and  _445
REMARK  194  A    between atoms: _444  and  _447
REMARK  195  A    between atoms: _447  and  _448
REMARK  196  A    between atoms: _451  and  _453
REMARK  197  A    between atoms: _453  and  _454
REMARK  198  A    between atoms: _453  and  _456
REMARK  199  A    between atoms: _456  and  _457
REMARK  200  A    between atoms: _457  and  _458
REMARK  201  A    between atoms: _458  and  _459
REMARK  202  A    between atoms: _459  and  _460
REMARK  203  A    between atoms: _464  and  _466
REMARK  204  A    between atoms: _466  and  _467
REMARK  205  A    between atoms: _466  and  _469
REMARK  206  A    between atoms: _469  and  _470
REMARK  207  A    between atoms: _475  and  _477
REMARK  208  A    between atoms: _477  and  _478
REMARK  209  A    between atoms: _480  and  _482
REMARK  210  A    between atoms: _482  and  _483
REMARK  211  A    between atoms: _482  and  _485
REMARK  212  A    between atoms: _485  and  _486
REMARK  213  A    between atoms: _489  and  _491
REMARK  214  A    between atoms: _491  and  _492
REMARK  215  A    between atoms: _491  and  _494
REMARK  216  A    between atoms: _494  and  _495
REMARK  217  A    between atoms: _495  and  _496
REMARK  218  A    between atoms: _496  and  _497
REMARK  219  A    between atoms: _497  and  _498
REMARK  220  A    between atoms: _502  and  _504
REMARK  221  A    between atoms: _504  and  _505
REMARK  222  A    between atoms: _504  and  _507
REMARK  223  A    between atoms: _510  and  _512
REMARK  224  A    between atoms: _512  and  _513
REMARK  225  A    between atoms: _512  and  _515
REMARK  226  A    between atoms: _515  and  _516
REMARK  227  A    between atoms: _516  and  _517
REMARK  228  A    between atoms: _517  and  _518
REMARK  229  A    between atoms: _518  and  _519
REMARK                            x       y       z     vdW  Elec       q    Type
REMARK                         _______ _______ _______ _____ _____    ______ ____
ROOT
ATOM      1  O   HOH     1      11.831  17.305  18.183  0.00  0.00    +0.000 OA
ENDROOT
TORSDOF 0
REMARK  Name = ../refined-set-2016/2qg0/2qg0_pocket.pdb
REMARK  229 active torsions:
REMARK  status: ('A' for Active; 'I' for Inactive)
REMARK    1  A    between atoms: _1  and  _3
REMARK    2  A    between atoms: _3  and  _4
REMARK    3  A    between atoms: _3  and  _6
REMARK    4  A    between atoms: _6  and  _7
REMARK    5  A    between atoms: _10  and  _12
REMARK    6  A    between atoms: _12  and  _13
REMARK    7  A    between atoms: _12  and  _15
REMARK    8  A    between atoms: _15  and  _16
REMARK    9  A    between atoms: _19  and  _21
REMARK   10  A    between atoms: _21  and  _22
REMARK   11  A    between atoms: _21  and  _24
REMARK   12  A    between atoms: _24  and  _25
REMARK   13  A    between atoms: _25  and  _26
REMARK   14  A    between atoms: _29  and  _31
REMARK   15  A    between atoms: _31  and  _32
REMARK   16  A    between atoms: _31  and  _34
REMARK   17  A    between atoms: _34  and  _35
REMARK   18  A    between atoms: _38  and  _40
REMARK   19  A    between atoms: _40  and  _41
REMARK   20  A    between atoms: _40  and  _43
REMARK   21  A    between atoms: _43  and  _44
REMARK   22  A    between atoms: _47  and  _49
REMARK   23  A    between atoms: _49  and  _50
REMARK   24  A    between atoms: _49  and  _52
REMARK   25  A    between atoms: _52  and  _53
REMARK   26  A    between atoms: _55  and  _57
REMARK   27  A    between atoms: _57  and  _58
REMARK   28  A    between atoms: _57  and  _60
REMARK   29  A    between atoms: _60  and  _61
REMARK   30  A    between atoms: _66  and  _68
REMARK   31  A    between atoms: _68  and  _69
REMARK   32  A    between atoms: _68  and  _71
REMARK   33  A    between atoms: _71  and  _72
REMARK   34  A    between atoms: _74  and  _76
REMARK   35  A    between atoms: _76  and  _77
REMARK   36  A    between atoms: _76  and  _79
REMARK   37  A    between atoms: _79  and  _80
REMARK   38  A    between atoms: _82  and  _84
REMARK   39  A    between atoms: _84  and  _85
REMARK   40  A    between atoms: _84  and  _87
REMARK   41  A    between atoms: _87  and  _88
REMARK   42  A    between atoms: _91  and  _93
REMARK   43  A    between atoms: _93  and  _94
REMARK   44  A    between atoms: _97  and  _99
REMARK   45  A    between atoms: _99  and  _100
REMARK   46  A    between atoms: _99  and  _102
REMARK   47  A    between atoms: _102  and  _103
REMARK   48  A    between atoms: _106  and  _108
REMARK   49  A    between atoms: _108  and  _109
REMARK   50  A    between atoms: _108  and  _111
REMARK   51  A    between atoms: _111  and  _112
REMARK   52  A    between atoms: _115  and  _117
REMARK   53  A    between atoms: _117  and  _118
REMARK   54  A    between atoms: _117  and  _120
REMARK   55  A    between atoms: _120  and  _121
REMARK   56  A    between atoms: _121  and  _122
REMARK   57  A    between atoms: _122  and  _123
REMARK   58  A    between atoms: _123  and  _124
REMARK   59  A    between atoms: _128  and  _130
REMARK   60  A    between atoms: _130  and  _131
REMARK   61  A    between atoms: _130  and  _133
REMARK   62  A    between atoms: _133  and  _134
REMARK   63  A    between atoms: _137  and  _139
REMARK   64  A    between atoms: _139  and  _140
REMARK   65  A    between atoms: _139  and  _142
REMARK   66  A    between atoms: _142  and  _143
REMARK   67  A    between atoms: _143  and  _144
REMARK   68  A    between atoms: _147  and  _149
REMARK   69  A    between atoms: _149  and  _150
REMARK   70  A    between atoms: _149  and  _152
REMARK   71  A    between atoms: _152  and  _153
REMARK   72  A    between atoms: _156  and  _158
REMARK   73  A    between atoms: _158  and  _159
REMARK   74  A    between atoms: _158  and  _161
REMARK   75  A    between atoms: _161  and  _162
REMARK   76  A    between atoms: _165  and  _167
REMARK   77  A    between atoms: _167  and  _168
REMARK   78  A    between atoms: _167  and  _170
REMARK   79  A    between atoms: _173  and  _175
REMARK   80  A    between atoms: _175  and  _176
REMARK   81  A    between atoms: _175  and  _178
REMARK   82  A    between atoms: _178  and  _179
REMARK   83  A    between atoms: _182  and  _184
REMARK   84  A    between atoms: _184  and  _185
REMARK   85  A    between atoms: _184  and  _187
REMARK   86  A    between atoms: _187  and  _188
REMARK   87  A    between atoms: _191  and  _193
REMARK   88  A    between atoms: _193  and  _194
REMARK   89  A    between atoms: _196  and  _198
REMARK   90  A    between atoms: _198  and  _199
REMARK   91  A    between atoms: _198  and  _201
REMARK   92  A    between atoms: _201  and  _202
REMARK   93  A    between atoms: _205  and  _207
REMARK   94  A    between atoms: _207  and  _208
REMARK   95  A    between atoms: _210  and  _212
REMARK   96  A    between atoms: _212  and  _213
REMARK   97  A    between atoms: _212  and  _215
REMARK   98  A    between atoms: _215  and  _216
REMARK   99  A    between atoms: _216  and  _217
REMARK  100  A    between atoms: _219  and  _221
REMARK  101  A    between atoms: _221  and  _222
REMARK  102  A    between atoms: _221  and  _224
REMARK  103  A    between atoms: _224  and  _225
REMARK  104  A    between atoms: _228  and  _230
REMARK  105  A    between atoms: _230  and  _231
REMARK  106  A    between atoms: _230  and  _233
REMARK  107  A    between atoms: _233  and  _234
REMARK  108  A    between atoms: _237  and  _239
REMARK  109  A    between atoms: _239  and  _240
REMARK  110  A    between atoms: _239  and  _242
REMARK  111  A    between atoms: _242  and  _243
REMARK  112  A    between atoms: _246  and  _248
REMARK  113  A    between atoms: _248  and  _249
REMARK  114  A    between atoms: _248  and  _251
REMARK  115  A    between atoms: _251  and  _252
REMARK  116  A    between atoms: _257  and  _259
REMARK  117  A    between atoms: _259  and  _260
REMARK  118  A    between atoms: _259  and  _262
REMARK  119  A    between atoms: _262  and  _263
REMARK  120  A    between atoms: _268  and  _270
REMARK  121  A    between atoms: _270  and  _271
REMARK  122  A    between atoms: _270  and  _273
REMARK  123  A    between atoms: _273  and  _274
REMARK  124  A    between atoms: _277  and  _279
REMARK  125  A    between atoms: _279  and  _280
REMARK  126  A    between atoms: _282  and  _284
REMARK  127  A    between atoms: _284  and  _285
REMARK  128  A    between atoms: _284  and  _287
REMARK  129  A    between atoms: _287  and  _288
REMARK  130  A    between atoms: _291  and  _293
REMARK  131  A    between atoms: _293  and  _294
REMARK  132  A    between atoms: _293  and  _296
REMARK  133  A    between atoms: _296  and  _297
REMARK  134  A    between atoms: _300  and  _302
REMARK  135  A    between atoms: _302  and  _303
REMARK  136  A    between atoms: _306  and  _308
REMARK  137  A    between atoms: _308  and  _309
REMARK  138  A    between atoms: _308  and  _311
REMARK  139  A    between atoms: _311  and  _312
REMARK  140  A    between atoms: _312  and  _313
REMARK  141  A    between atoms: _313  and  _314
REMARK  142  A    between atoms: _314  and  _315
REMARK  143  A    between atoms: _319  and  _321
REMARK  144  A    between atoms: _321  and  _322
REMARK  145  A    between atoms: _321  and  _324
REMARK  146  A    between atoms: _324  and  _325
REMARK  147  A    between atoms: _327  and  _329
REMARK  148  A    between atoms: _329  and  _330
REMARK  149  A    between atoms: _332  and  _334
REMARK  150  A    between atoms: _334  and  _335
REMARK  151  A    between atoms: _334  and  _337
REMARK  152  A    between atoms: _337  and  _338
REMARK  153  A    between atoms: _341  and  _343
REMARK  154  A    between atoms: _343  and  _344
REMARK  155  A    between atoms: _343  and  _346
REMARK  156  A    between atoms: _346  and  _347
REMARK  157  A    between atoms: _350  and  _352
REMARK  158  A    between atoms: _352  and  _353
REMARK  159  A    between atoms: _355  and  _357
REMARK  160  A    between atoms: _357  and  _358
REMARK  161  A    between atoms: _357  and  _360
REMARK  162  A    between atoms: _360  and  _361
REMARK  163  A    between atoms: _367  and  _369
REMARK  164  A    between atoms: _369  and  _370
REMARK  165  A    between atoms: _372  and  _374
REMARK  166  A    between atoms: _374  and  _375
REMARK  167  A    between atoms: _374  and  _377
REMARK  168  A    between atoms: _380  and  _382
REMARK  169  A    between atoms: _382  and  _383
REMARK  170  A    between atoms: _385  and  _387
REMARK  171  A    between atoms: _387  and  _388
REMARK  172  A    between atoms: _387  and  _390
REMARK  173  A    between atoms: _390  and  _391
REMARK  174  A    between atoms: _397  and  _399
REMARK  175  A    between atoms: _399  and  _400
REMARK  176  A    between atoms: _399  and  _402
REMARK  177  A    between atoms: _402  and  _403
REMARK  178  A    between atoms: _408  and  _409
REMARK  179  A    between atoms: _411  and  _413
REMARK  180  A    between atoms: _413  and  _414
REMARK  181  A    between atoms: _413  and  _416
REMARK  182  A    between atoms: _416  and  _417
REMARK  183  A    between atoms: _419  and  _421
REMARK  184  A    between atoms: _421  and  _422
REMARK  185  A    between atoms: _425  and  _427
REMARK  186  A    between atoms: _427  and  _428
REMARK  187  A    between atoms: _427  and  _430
REMARK  188  A    between atoms: _433  and  _435
REMARK  189  A    between atoms: _435  and  _436
REMARK  190  A    between atoms: _435  and  _438
REMARK  191  A    between atoms: _438  and  _439
REMARK  192  A    between atoms: _442  and  _444
REMARK  193  A    between atoms: _444  and  _445
REMARK  194  A    between atoms: _444  and  _447
REMARK  195  A    between atoms: _447  and  _448
REMARK  196  A    between atoms: _451  and  _453
REMARK  197  A    between atoms: _453  and  _454
REMARK  198  A    between atoms: _453  and  _456
REMARK  199  A    between atoms: _456  and  _457
REMARK  200  A    between atoms: _457  and  _458
REMARK  201  A    between atoms: _458  and  _459
REMARK  202  A    between atoms: _459  and  _460
REMARK  203  A    between atoms: _464  and  _466
REMARK  204  A    between atoms: _466  and  _467
REMARK  205  A    between atoms: _466  and  _469
REMARK  206  A    between atoms: _469  and  _470
REMARK  207  A    between atoms: _475  and  _477
REMARK  208  A    between atoms: _477  and  _478
REMARK  209  A    between atoms: _480  and  _482
REMARK  210  A    between atoms: _482  and  _483
REMARK  211  A    between atoms: _482  and  _485
REMARK  212  A    between atoms: _485  and  _486
REMARK  213  A    between atoms: _489  and  _491
REMARK  214  A    between atoms: _491  and  _492
REMARK  215  A    between atoms: _491  and  _494
REMARK  216  A    between atoms: _494  and  _495
REMARK  217  A    between atoms: _495  and  _496
REMARK  218  A    between atoms: _496  and  _497
REMARK  219  A    between atoms: _497  and  _498
REMARK  220  A    between atoms: _502  and  _504
REMARK  221  A    between atoms: _504  and  _505
REMARK  222  A    between atoms: _504  and  _507
REMARK  223  A    between atoms: _510  and  _512
REMARK  224  A    between atoms: _512  and  _513
REMARK  225  A    between atoms: _512  and  _515
REMARK  226  A    between atoms: _515  and  _516
REMARK  227  A    between atoms: _516  and  _517
REMARK  228  A    between atoms: _517  and  _518
REMARK  229  A    between atoms: _518  and  _519
REMARK                            x       y       z     vdW  Elec       q    Type
REMARK                         _______ _______ _______ _____ _____    ______ ____
ROOT
ATOM      1  O   HOH     1      22.831  22.565  12.357  0.00  0.00    +0.000 OA
ENDROOT
TORSDOF 0
REMARK  Name = ../refined-set-2016/2qg0/2qg0_pocket.pdb
REMARK  229 active torsions:
REMARK  status: ('A' for Active; 'I' for Inactive)
REMARK    1  A    between atoms: _1  and  _3
REMARK    2  A    between atoms: _3  and  _4
REMARK    3  A    between atoms: _3  and  _6
REMARK    4  A    between atoms: _6  and  _7
REMARK    5  A    between atoms: _10  and  _12
REMARK    6  A    between atoms: _12  and  _13
REMARK    7  A    between atoms: _12  and  _15
REMARK    8  A    between atoms: _15  and  _16
REMARK    9  A    between atoms: _19  and  _21
REMARK   10  A    between atoms: _21  and  _22
REMARK   11  A    between atoms: _21  and  _24
REMARK   12  A    between atoms: _24  and  _25
REMARK   13  A    between atoms: _25  and  _26
REMARK   14  A    between atoms: _29  and  _31
REMARK   15  A    between atoms: _31  and  _32
REMARK   16  A    between atoms: _31  and  _34
REMARK   17  A    between atoms: _34  and  _35
REMARK   18  A    between atoms: _38  and  _40
REMARK   19  A    between atoms: _40  and  _41
REMARK   20  A    between atoms: _40  and  _43
REMARK   21  A    between atoms: _43  and  _44
REMARK   22  A    between atoms: _47  and  _49
REMARK   23  A    between atoms: _49  and  _50
REMARK   24  A    between atoms: _49  and  _52
REMARK   25  A    between atoms: _52  and  _53
REMARK   26  A    between atoms: _55  and  _57
REMARK   27  A    between atoms: _57  and  _58
REMARK   28  A    between atoms: _57  and  _60
REMARK   29  A    between atoms: _60  and  _61
REMARK   30  A    between atoms: _66  and  _68
REMARK   31  A    between atoms: _68  and  _69
REMARK   32  A    between atoms: _68  and  _71
REMARK   33  A    between atoms: _71  and  _72
REMARK   34  A    between atoms: _74  and  _76
REMARK   35  A    between atoms: _76  and  _77
REMARK   36  A    between atoms: _76  and  _79
REMARK   37  A    between atoms: _79  and  _80
REMARK   38  A    between atoms: _82  and  _84
REMARK   39  A    between atoms: _84  and  _85
REMARK   40  A    between atoms: _84  and  _87
REMARK   41  A    between atoms: _87  and  _88
REMARK   42  A    between atoms: _91  and  _93
REMARK   43  A    between atoms: _93  and  _94
REMARK   44  A    between atoms: _97  and  _99
REMARK   45  A    between atoms: _99  and  _100
REMARK   46  A    between atoms: _99  and  _102
REMARK   47  A    between atoms: _102  and  _103
REMARK   48  A    between atoms: _106  and  _108
REMARK   49  A    between atoms: _108  and  _109
REMARK   50  A    between atoms: _108  and  _111
REMARK   51  A    between atoms: _111  and  _112
REMARK   52  A    between atoms: _115  and  _117
REMARK   53  A    between atoms: _117  and  _118
REMARK   54  A    between atoms: _117  and  _120
REMARK   55  A    between atoms: _120  and  _121
REMARK   56  A    between atoms: _121  and  _122
REMARK   57  A    between atoms: _122  and  _123
REMARK   58  A    between atoms: _123  and  _124
REMARK   59  A    between atoms: _128  and  _130
REMARK   60  A    between atoms: _130  and  _131
REMARK   61  A    between atoms: _130  and  _133
REMARK   62  A    between atoms: _133  and  _134
REMARK   63  A    between atoms: _137  and  _139
REMARK   64  A    between atoms: _139  and  _140
REMARK   65  A    between atoms: _139  and  _142
REMARK   66  A    between atoms: _142  and  _143
REMARK   67  A    between atoms: _143  and  _144
REMARK   68  A    between atoms: _147  and  _149
REMARK   69  A    between atoms: _149  and  _150
REMARK   70  A    between atoms: _149  and  _152
REMARK   71  A    between atoms: _152  and  _153
REMARK   72  A    between atoms: _156  and  _158
REMARK   73  A    between atoms: _158  and  _159
REMARK   74  A    between atoms: _158  and  _161
REMARK   75  A    between atoms: _161  and  _162
REMARK   76  A    between atoms: _165  and  _167
REMARK   77  A    between atoms: _167  and  _168
REMARK   78  A    between atoms: _167  and  _170
REMARK   79  A    between atoms: _173  and  _175
REMARK   80  A    between atoms: _175  and  _176
REMARK   81  A    between atoms: _175  and  _178
REMARK   82  A    between atoms: _178  and  _179
REMARK   83  A    between atoms: _182  and  _184
REMARK   84  A    between atoms: _184  and  _185
REMARK   85  A    between atoms: _184  and  _187
REMARK   86  A    between atoms: _187  and  _188
REMARK   87  A    between atoms: _191  and  _193
REMARK   88  A    between atoms: _193  and  _194
REMARK   89  A    between atoms: _196  and  _198
REMARK   90  A    between atoms: _198  and  _199
REMARK   91  A    between atoms: _198  and  _201
REMARK   92  A    between atoms: _201  and  _202
REMARK   93  A    between atoms: _205  and  _207
REMARK   94  A    between atoms: _207  and  _208
REMARK   95  A    between atoms: _210  and  _212
REMARK   96  A    between atoms: _212  and  _213
REMARK   97  A    between atoms: _212  and  _215
REMARK   98  A    between atoms: _215  and  _216
REMARK   99  A    between atoms: _216  and  _217
REMARK  100  A    between atoms: _219  and  _221
REMARK  101  A    between atoms: _221  and  _222
REMARK  102  A    between atoms: _221  and  _224
REMARK  103  A    between atoms: _224  and  _225
REMARK  104  A    between atoms: _228  and  _230
REMARK  105  A    between atoms: _230  and  _231
REMARK  106  A    between atoms: _230  and  _233
REMARK  107  A    between atoms: _233  and  _234
REMARK  108  A    between atoms: _237  and  _239
REMARK  109  A    between atoms: _239  and  _240
REMARK  110  A    between atoms: _239  and  _242
REMARK  111  A    between atoms: _242  and  _243
REMARK  112  A    between atoms: _246  and  _248
REMARK  113  A    between atoms: _248  and  _249
REMARK  114  A    between atoms: _248  and  _251
REMARK  115  A    between atoms: _251  and  _252
REMARK  116  A    between atoms: _257  and  _259
REMARK  117  A    between atoms: _259  and  _260
REMARK  118  A    between atoms: _259  and  _262
REMARK  119  A    between atoms: _262  and  _263
REMARK  120  A    between atoms: _268  and  _270
REMARK  121  A    between atoms: _270  and  _271
REMARK  122  A    between atoms: _270  and  _273
REMARK  123  A    between atoms: _273  and  _274
REMARK  124  A    between atoms: _277  and  _279
REMARK  125  A    between atoms: _279  and  _280
REMARK  126  A    between atoms: _282  and  _284
REMARK  127  A    between atoms: _284  and  _285
REMARK  128  A    between atoms: _284  and  _287
REMARK  129  A    between atoms: _287  and  _288
REMARK  130  A    between atoms: _291  and  _293
REMARK  131  A    between atoms: _293  and  _294
REMARK  132  A    between atoms: _293  and  _296
REMARK  133  A    between atoms: _296  and  _297
REMARK  134  A    between atoms: _300  and  _302
REMARK  135  A    between atoms: _302  and  _303
REMARK  136  A    between atoms: _306  and  _308
REMARK  137  A    between atoms: _308  and  _309
REMARK  138  A    between atoms: _308  and  _311
REMARK  139  A    between atoms: _311  and  _312
REMARK  140  A    between atoms: _312  and  _313
REMARK  141  A    between atoms: _313  and  _314
REMARK  142  A    between atoms: _314  and  _315
REMARK  143  A    between atoms: _319  and  _321
REMARK  144  A    between atoms: _321  and  _322
REMARK  145  A    between atoms: _321  and  _324
REMARK  146  A    between atoms: _324  and  _325
REMARK  147  A    between atoms: _327  and  _329
REMARK  148  A    between atoms: _329  and  _330
REMARK  149  A    between atoms: _332  and  _334
REMARK  150  A    between atoms: _334  and  _335
REMARK  151  A    between atoms: _334  and  _337
REMARK  152  A    between atoms: _337  and  _338
REMARK  153  A    between atoms: _341  and  _343
REMARK  154  A    between atoms: _343  and  _344
REMARK  155  A    between atoms: _343  and  _346
REMARK  156  A    between atoms: _346  and  _347
REMARK  157  A    between atoms: _350  and  _352
REMARK  158  A    between atoms: _352  and  _353
REMARK  159  A    between atoms: _355  and  _357
REMARK  160  A    between atoms: _357  and  _358
REMARK  161  A    between atoms: _357  and  _360
REMARK  162  A    between atoms: _360  and  _361
REMARK  163  A    between atoms: _367  and  _369
REMARK  164  A    between atoms: _369  and  _370
REMARK  165  A    between atoms: _372  and  _374
REMARK  166  A    between atoms: _374  and  _375
REMARK  167  A    between atoms: _374  and  _377
REMARK  168  A    between atoms: _380  and  _382
REMARK  169  A    between atoms: _382  and  _383
REMARK  170  A    between atoms: _385  and  _387
REMARK  171  A    between atoms: _387  and  _388
REMARK  172  A    between atoms: _387  and  _390
REMARK  173  A    between atoms: _390  and  _391
REMARK  174  A    between atoms: _397  and  _399
REMARK  175  A    between atoms: _399  and  _400
REMARK  176  A    between atoms: _399  and  _402
REMARK  177  A    between atoms: _402  and  _403
REMARK  178  A    between atoms: _408  and  _409
REMARK  179  A    between atoms: _411  and  _413
REMARK  180  A    between atoms: _413  and  _414
REMARK  181  A    between atoms: _413  and  _416
REMARK  182  A    between atoms: _416  and  _417
REMARK  183  A    between atoms: _419  and  _421
REMARK  184  A    between atoms: _421  and  _422
REMARK  185  A    between atoms: _425  and  _427
REMARK  186  A    between atoms: _427  and  _428
REMARK  187  A    between atoms: _427  and  _430
REMARK  188  A    between atoms: _433  and  _435
REMARK  189  A    between atoms: _435  and  _436
REMARK  190  A    between atoms: _435  and  _438
REMARK  191  A    between atoms: _438  and  _439
REMARK  192  A    between atoms: _442  and  _444
REMARK  193  A    between atoms: _444  and  _445
REMARK  194  A    between atoms: _444  and  _447
REMARK  195  A    between atoms: _447  and  _448
REMARK  196  A    between atoms: _451  and  _453
REMARK  197  A    between atoms: _453  and  _454
REMARK  198  A    between atoms: _453  and  _456
REMARK  199  A    between atoms: _456  and  _457
REMARK  200  A    between atoms: _457  and  _458
REMARK  201  A    between atoms: _458  and  _459
REMARK  202  A    between atoms: _459  and  _460
REMARK  203  A    between atoms: _464  and  _466
REMARK  204  A    between atoms: _466  and  _467
REMARK  205  A    between atoms: _466  and  _469
REMARK  206  A    between atoms: _469  and  _470
REMARK  207  A    between atoms: _475  and  _477
REMARK  208  A    between atoms: _477  and  _478
REMARK  209  A    between atoms: _480  and  _482
REMARK  210  A    between atoms: _482  and  _483
REMARK  211  A    between atoms: _482  and  _485
REMARK  212  A    between atoms: _485  and  _486
REMARK  213  A    between atoms: _489  and  _491
REMARK  214  A    between atoms: _491  and  _492
REMARK  215  A    between atoms: _491  and  _494
REMARK  216  A    between atoms: _494  and  _495
REMARK  217  A    between atoms: _495  and  _496
REMARK  218  A    between atoms: _496  and  _497
REMARK  219  A    between atoms: _497  and  _498
REMARK  220  A    between atoms: _502  and  _504
REMARK  221  A    between atoms: _504  and  _505
REMARK  222  A    between atoms: _504  and  _507
REMARK  223  A    between atoms: _510  and  _512
REMARK  224  A    between atoms: _512  and  _513
REMARK  225  A    between atoms: _512  and  _515
REMARK  226  A    between atoms: _515  and  _516
REMARK  227  A    between atoms: _516  and  _517
REMARK  228  A    between atoms: _517  and  _518
REMARK  229  A    between atoms: _518  and  _519
REMARK                            x       y       z     vdW  Elec       q    Type
REMARK                         _______ _______ _______ _____ _____    ______ ____
ROOT
ATOM      1  O   HOH     1      13.525  15.457  14.969  0.00  0.00    +0.000 OA
ENDROOT
TORSDOF 0
REMARK  Name = ../refined-set-2016/2qg0/2qg0_pocket.pdb
REMARK  229 active torsions:
REMARK  status: ('A' for Active; 'I' for Inactive)
REMARK    1  A    between atoms: _1  and  _3
REMARK    2  A    between atoms: _3  and  _4
REMARK    3  A    between atoms: _3  and  _6
REMARK    4  A    between atoms: _6  and  _7
REMARK    5  A    between atoms: _10  and  _12
REMARK    6  A    between atoms: _12  and  _13
REMARK    7  A    between atoms: _12  and  _15
REMARK    8  A    between atoms: _15  and  _16
REMARK    9  A    between atoms: _19  and  _21
REMARK   10  A    between atoms: _21  and  _22
REMARK   11  A    between atoms: _21  and  _24
REMARK   12  A    between atoms: _24  and  _25
REMARK   13  A    between atoms: _25  and  _26
REMARK   14  A    between atoms: _29  and  _31
REMARK   15  A    between atoms: _31  and  _32
REMARK   16  A    between atoms: _31  and  _34
REMARK   17  A    between atoms: _34  and  _35
REMARK   18  A    between atoms: _38  and  _40
REMARK   19  A    between atoms: _40  and  _41
REMARK   20  A    between atoms: _40  and  _43
REMARK   21  A    between atoms: _43  and  _44
REMARK   22  A    between atoms: _47  and  _49
REMARK   23  A    between atoms: _49  and  _50
REMARK   24  A    between atoms: _49  and  _52
REMARK   25  A    between atoms: _52  and  _53
REMARK   26  A    between atoms: _55  and  _57
REMARK   27  A    between atoms: _57  and  _58
REMARK   28  A    between atoms: _57  and  _60
REMARK   29  A    between atoms: _60  and  _61
REMARK   30  A    between atoms: _66  and  _68
REMARK   31  A    between atoms: _68  and  _69
REMARK   32  A    between atoms: _68  and  _71
REMARK   33  A    between atoms: _71  and  _72
REMARK   34  A    between atoms: _74  and  _76
REMARK   35  A    between atoms: _76  and  _77
REMARK   36  A    between atoms: _76  and  _79
REMARK   37  A    between atoms: _79  and  _80
REMARK   38  A    between atoms: _82  and  _84
REMARK   39  A    between atoms: _84  and  _85
REMARK   40  A    between atoms: _84  and  _87
REMARK   41  A    between atoms: _87  and  _88
REMARK   42  A    between atoms: _91  and  _93
REMARK   43  A    between atoms: _93  and  _94
REMARK   44  A    between atoms: _97  and  _99
REMARK   45  A    between atoms: _99  and  _100
REMARK   46  A    between atoms: _99  and  _102
REMARK   47  A    between atoms: _102  and  _103
REMARK   48  A    between atoms: _106  and  _108
REMARK   49  A    between atoms: _108  and  _109
REMARK   50  A    between atoms: _108  and  _111
REMARK   51  A    between atoms: _111  and  _112
REMARK   52  A    between atoms: _115  and  _117
REMARK   53  A    between atoms: _117  and  _118
REMARK   54  A    between atoms: _117  and  _120
REMARK   55  A    between atoms: _120  and  _121
REMARK   56  A    between atoms: _121  and  _122
REMARK   57  A    between atoms: _122  and  _123
REMARK   58  A    between atoms: _123  and  _124
REMARK   59  A    between atoms: _128  and  _130
REMARK   60  A    between atoms: _130  and  _131
REMARK   61  A    between atoms: _130  and  _133
REMARK   62  A    between atoms: _133  and  _134
REMARK   63  A    between atoms: _137  and  _139
REMARK   64  A    between atoms: _139  and  _140
REMARK   65  A    between atoms: _139  and  _142
REMARK   66  A    between atoms: _142  and  _143
REMARK   67  A    between atoms: _143  and  _144
REMARK   68  A    between atoms: _147  and  _149
REMARK   69  A    between atoms: _149  and  _150
REMARK   70  A    between atoms: _149  and  _152
REMARK   71  A    between atoms: _152  and  _153
REMARK   72  A    between atoms: _156  and  _158
REMARK   73  A    between atoms: _158  and  _159
REMARK   74  A    between atoms: _158  and  _161
REMARK   75  A    between atoms: _161  and  _162
REMARK   76  A    between atoms: _165  and  _167
REMARK   77  A    between atoms: _167  and  _168
REMARK   78  A    between atoms: _167  and  _170
REMARK   79  A    between atoms: _173  and  _175
REMARK   80  A    between atoms: _175  and  _176
REMARK   81  A    between atoms: _175  and  _178
REMARK   82  A    between atoms: _178  and  _179
REMARK   83  A    between atoms: _182  and  _184
REMARK   84  A    between atoms: _184  and  _185
REMARK   85  A    between atoms: _184  and  _187
REMARK   86  A    between atoms: _187  and  _188
REMARK   87  A    between atoms: _191  and  _193
REMARK   88  A    between atoms: _193  and  _194
REMARK   89  A    between atoms: _196  and  _198
REMARK   90  A    between atoms: _198  and  _199
REMARK   91  A    between atoms: _198  and  _201
REMARK   92  A    between atoms: _201  and  _202
REMARK   93  A    between atoms: _205  and  _207
REMARK   94  A    between atoms: _207  and  _208
REMARK   95  A    between atoms: _210  and  _212
REMARK   96  A    between atoms: _212  and  _213
REMARK   97  A    between atoms: _212  and  _215
REMARK   98  A    between atoms: _215  and  _216
REMARK   99  A    between atoms: _216  and  _217
REMARK  100  A    between atoms: _219  and  _221
REMARK  101  A    between atoms: _221  and  _222
REMARK  102  A    between atoms: _221  and  _224
REMARK  103  A    between atoms: _224  and  _225
REMARK  104  A    between atoms: _228  and  _230
REMARK  105  A    between atoms: _230  and  _231
REMARK  106  A    between atoms: _230  and  _233
REMARK  107  A    between atoms: _233  and  _234
REMARK  108  A    between atoms: _237  and  _239
REMARK  109  A    between atoms: _239  and  _240
REMARK  110  A    between atoms: _239  and  _242
REMARK  111  A    between atoms: _242  and  _243
REMARK  112  A    between atoms: _246  and  _248
REMARK  113  A    between atoms: _248  and  _249
REMARK  114  A    between atoms: _248  and  _251
REMARK  115  A    between atoms: _251  and  _252
REMARK  116  A    between atoms: _257  and  _259
REMARK  117  A    between atoms: _259  and  _260
REMARK  118  A    between atoms: _259  and  _262
REMARK  119  A    between atoms: _262  and  _263
REMARK  120  A    between atoms: _268  and  _270
REMARK  121  A    between atoms: _270  and  _271
REMARK  122  A    between atoms: _270  and  _273
REMARK  123  A    between atoms: _273  and  _274
REMARK  124  A    between atoms: _277  and  _279
REMARK  125  A    between atoms: _279  and  _280
REMARK  126  A    between atoms: _282  and  _284
REMARK  127  A    between atoms: _284  and  _285
REMARK  128  A    between atoms: _284  and  _287
REMARK  129  A    between atoms: _287  and  _288
REMARK  130  A    between atoms: _291  and  _293
REMARK  131  A    between atoms: _293  and  _294
REMARK  132  A    between atoms: _293  and  _296
REMARK  133  A    between atoms: _296  and  _297
REMARK  134  A    between atoms: _300  and  _302
REMARK  135  A    between atoms: _302  and  _303
REMARK  136  A    between atoms: _306  and  _308
REMARK  137  A    between atoms: _308  and  _309
REMARK  138  A    between atoms: _308  and  _311
REMARK  139  A    between atoms: _311  and  _312
REMARK  140  A    between atoms: _312  and  _313
REMARK  141  A    between atoms: _313  and  _314
REMARK  142  A    between atoms: _314  and  _315
REMARK  143  A    between atoms: _319  and  _321
REMARK  144  A    between atoms: _321  and  _322
REMARK  145  A    between atoms: _321  and  _324
REMARK  146  A    between atoms: _324  and  _325
REMARK  147  A    between atoms: _327  and  _329
REMARK  148  A    between atoms: _329  and  _330
REMARK  149  A    between atoms: _332  and  _334
REMARK  150  A    between atoms: _334  and  _335
REMARK  151  A    between atoms: _334  and  _337
REMARK  152  A    between atoms: _337  and  _338
REMARK  153  A    between atoms: _341  and  _343
REMARK  154  A    between atoms: _343  and  _344
REMARK  155  A    between atoms: _343  and  _346
REMARK  156  A    between atoms: _346  and  _347
REMARK  157  A    between atoms: _350  and  _352
REMARK  158  A    between atoms: _352  and  _353
REMARK  159  A    between atoms: _355  and  _357
REMARK  160  A    between atoms: _357  and  _358
REMARK  161  A    between atoms: _357  and  _360
REMARK  162  A    between atoms: _360  and  _361
REMARK  163  A    between atoms: _367  and  _369
REMARK  164  A    between atoms: _369  and  _370
REMARK  165  A    between atoms: _372  and  _374
REMARK  166  A    between atoms: _374  and  _375
REMARK  167  A    between atoms: _374  and  _377
REMARK  168  A    between atoms: _380  and  _382
REMARK  169  A    between atoms: _382  and  _383
REMARK  170  A    between atoms: _385  and  _387
REMARK  171  A    between atoms: _387  and  _388
REMARK  172  A    between atoms: _387  and  _390
REMARK  173  A    between atoms: _390  and  _391
REMARK  174  A    between atoms: _397  and  _399
REMARK  175  A    between atoms: _399  and  _400
REMARK  176  A    between atoms: _399  and  _402
REMARK  177  A    between atoms: _402  and  _403
REMARK  178  A    between atoms: _408  and  _409
REMARK  179  A    between atoms: _411  and  _413
REMARK  180  A    between atoms: _413  and  _414
REMARK  181  A    between atoms: _413  and  _416
REMARK  182  A    between atoms: _416  and  _417
REMARK  183  A    between atoms: _419  and  _421
REMARK  184  A    between atoms: _421  and  _422
REMARK  185  A    between atoms: _425  and  _427
REMARK  186  A    between atoms: _427  and  _428
REMARK  187  A    between atoms: _427  and  _430
REMARK  188  A    between atoms: _433  and  _435
REMARK  189  A    between atoms: _435  and  _436
REMARK  190  A    between atoms: _435  and  _438
REMARK  191  A    between atoms: _438  and  _439
REMARK  192  A    between atoms: _442  and  _444
REMARK  193  A    between atoms: _444  and  _445
REMARK  194  A    between atoms: _444  and  _447
REMARK  195  A    between atoms: _447  and  _448
REMARK  196  A    between atoms: _451  and  _453
REMARK  197  A    between atoms: _453  and  _454
REMARK  198  A    between atoms: _453  and  _456
REMARK  199  A    between atoms: _456  and  _457
REMARK  200  A    between atoms: _457  and  _458
REMARK  201  A    between atoms: _458  and  _459
REMARK  202  A    between atoms: _459  and  _460
REMARK  203  A    between atoms: _464  and  _466
REMARK  204  A    between atoms: _466  and  _467
REMARK  205  A    between atoms: _466  and  _469
REMARK  206  A    between atoms: _469  and  _470
REMARK  207  A    between atoms: _475  and  _477
REMARK  208  A    between atoms: _477  and  _478
REMARK  209  A    between atoms: _480  and  _482
REMARK  210  A    between atoms: _482  and  _483
REMARK  211  A    between atoms: _482  and  _485
REMARK  212  A    between atoms: _485  and  _486
REMARK  213  A    between atoms: _489  and  _491
REMARK  214  A    between atoms: _491  and  _492
REMARK  215  A    between atoms: _491  and  _494
REMARK  216  A    between atoms: _494  and  _495
REMARK  217  A    between atoms: _495  and  _496
REMARK  218  A    between atoms: _496  and  _497
REMARK  219  A    between atoms: _497  and  _498
REMARK  220  A    between atoms: _502  and  _504
REMARK  221  A    between atoms: _504  and  _505
REMARK  222  A    between atoms: _504  and  _507
REMARK  223  A    between atoms: _510  and  _512
REMARK  224  A    between atoms: _512  and  _513
REMARK  225  A    between atoms: _512  and  _515
REMARK  226  A    between atoms: _515  and  _516
REMARK  227  A    between atoms: _516  and  _517
REMARK  228  A    between atoms: _517  and  _518
REMARK  229  A    between atoms: _518  and  _519
REMARK                            x       y       z     vdW  Elec       q    Type
REMARK                         _______ _______ _______ _____ _____    ______ ____
ROOT
ATOM      1  O   HOH     1      15.674  22.265   9.093  0.00  0.00    +0.000 OA
ENDROOT
TORSDOF 0
REMARK  Name = ../refined-set-2016/2qg0/2qg0_pocket.pdb
REMARK  229 active torsions:
REMARK  status: ('A' for Active; 'I' for Inactive)
REMARK    1  A    between atoms: _1  and  _3
REMARK    2  A    between atoms: _3  and  _4
REMARK    3  A    between atoms: _3  and  _6
REMARK    4  A    between atoms: _6  and  _7
REMARK    5  A    between atoms: _10  and  _12
REMARK    6  A    between atoms: _12  and  _13
REMARK    7  A    between atoms: _12  and  _15
REMARK    8  A    between atoms: _15  and  _16
REMARK    9  A    between atoms: _19  and  _21
REMARK   10  A    between atoms: _21  and  _22
REMARK   11  A    between atoms: _21  and  _24
REMARK   12  A    between atoms: _24  and  _25
REMARK   13  A    between atoms: _25  and  _26
REMARK   14  A    between atoms: _29  and  _31
REMARK   15  A    between atoms: _31  and  _32
REMARK   16  A    between atoms: _31  and  _34
REMARK   17  A    between atoms: _34  and  _35
REMARK   18  A    between atoms: _38  and  _40
REMARK   19  A    between atoms: _40  and  _41
REMARK   20  A    between atoms: _40  and  _43
REMARK   21  A    between atoms: _43  and  _44
REMARK   22  A    between atoms: _47  and  _49
REMARK   23  A    between atoms: _49  and  _50
REMARK   24  A    between atoms: _49  and  _52
REMARK   25  A    between atoms: _52  and  _53
REMARK   26  A    between atoms: _55  and  _57
REMARK   27  A    between atoms: _57  and  _58
REMARK   28  A    between atoms: _57  and  _60
REMARK   29  A    between atoms: _60  and  _61
REMARK   30  A    between atoms: _66  and  _68
REMARK   31  A    between atoms: _68  and  _69
REMARK   32  A    between atoms: _68  and  _71
REMARK   33  A    between atoms: _71  and  _72
REMARK   34  A    between atoms: _74  and  _76
REMARK   35  A    between atoms: _76  and  _77
REMARK   36  A    between atoms: _76  and  _79
REMARK   37  A    between atoms: _79  and  _80
REMARK   38  A    between atoms: _82  and  _84
REMARK   39  A    between atoms: _84  and  _85
REMARK   40  A    between atoms: _84  and  _87
REMARK   41  A    between atoms: _87  and  _88
REMARK   42  A    between atoms: _91  and  _93
REMARK   43  A    between atoms: _93  and  _94
REMARK   44  A    between atoms: _97  and  _99
REMARK   45  A    between atoms: _99  and  _100
REMARK   46  A    between atoms: _99  and  _102
REMARK   47  A    between atoms: _102  and  _103
REMARK   48  A    between atoms: _106  and  _108
REMARK   49  A    between atoms: _108  and  _109
REMARK   50  A    between atoms: _108  and  _111
REMARK   51  A    between atoms: _111  and  _112
REMARK   52  A    between atoms: _115  and  _117
REMARK   53  A    between atoms: _117  and  _118
REMARK   54  A    between atoms: _117  and  _120
REMARK   55  A    between atoms: _120  and  _121
REMARK   56  A    between atoms: _121  and  _122
REMARK   57  A    between atoms: _122  and  _123
REMARK   58  A    between atoms: _123  and  _124
REMARK   59  A    between atoms: _128  and  _130
REMARK   60  A    between atoms: _130  and  _131
REMARK   61  A    between atoms: _130  and  _133
REMARK   62  A    between atoms: _133  and  _134
REMARK   63  A    between atoms: _137  and  _139
REMARK   64  A    between atoms: _139  and  _140
REMARK   65  A    between atoms: _139  and  _142
REMARK   66  A    between atoms: _142  and  _143
REMARK   67  A    between atoms: _143  and  _144
REMARK   68  A    between atoms: _147  and  _149
REMARK   69  A    between atoms: _149  and  _150
REMARK   70  A    between atoms: _149  and  _152
REMARK   71  A    between atoms: _152  and  _153
REMARK   72  A    between atoms: _156  and  _158
REMARK   73  A    between atoms: _158  and  _159
REMARK   74  A    between atoms: _158  and  _161
REMARK   75  A    between atoms: _161  and  _162
REMARK   76  A    between atoms: _165  and  _167
REMARK   77  A    between atoms: _167  and  _168
REMARK   78  A    between atoms: _167  and  _170
REMARK   79  A    between atoms: _173  and  _175
REMARK   80  A    between atoms: _175  and  _176
REMARK   81  A    between atoms: _175  and  _178
REMARK   82  A    between atoms: _178  and  _179
REMARK   83  A    between atoms: _182  and  _184
REMARK   84  A    between atoms: _184  and  _185
REMARK   85  A    between atoms: _184  and  _187
REMARK   86  A    between atoms: _187  and  _188
REMARK   87  A    between atoms: _191  and  _193
REMARK   88  A    between atoms: _193  and  _194
REMARK   89  A    between atoms: _196  and  _198
REMARK   90  A    between atoms: _198  and  _199
REMARK   91  A    between atoms: _198  and  _201
REMARK   92  A    between atoms: _201  and  _202
REMARK   93  A    between atoms: _205  and  _207
REMARK   94  A    between atoms: _207  and  _208
REMARK   95  A    between atoms: _210  and  _212
REMARK   96  A    between atoms: _212  and  _213
REMARK   97  A    between atoms: _212  and  _215
REMARK   98  A    between atoms: _215  and  _216
REMARK   99  A    between atoms: _216  and  _217
REMARK  100  A    between atoms: _219  and  _221
REMARK  101  A    between atoms: _221  and  _222
REMARK  102  A    between atoms: _221  and  _224
REMARK  103  A    between atoms: _224  and  _225
REMARK  104  A    between atoms: _228  and  _230
REMARK  105  A    between atoms: _230  and  _231
REMARK  106  A    between atoms: _230  and  _233
REMARK  107  A    between atoms: _233  and  _234
REMARK  108  A    between atoms: _237  and  _239
REMARK  109  A    between atoms: _239  and  _240
REMARK  110  A    between atoms: _239  and  _242
REMARK  111  A    between atoms: _242  and  _243
REMARK  112  A    between atoms: _246  and  _248
REMARK  113  A    between atoms: _248  and  _249
REMARK  114  A    between atoms: _248  and  _251
REMARK  115  A    between atoms: _251  and  _252
REMARK  116  A    between atoms: _257  and  _259
REMARK  117  A    between atoms: _259  and  _260
REMARK  118  A    between atoms: _259  and  _262
REMARK  119  A    between atoms: _262  and  _263
REMARK  120  A    between atoms: _268  and  _270
REMARK  121  A    between atoms: _270  and  _271
REMARK  122  A    between atoms: _270  and  _273
REMARK  123  A    between atoms: _273  and  _274
REMARK  124  A    between atoms: _277  and  _279
REMARK  125  A    between atoms: _279  and  _280
REMARK  126  A    between atoms: _282  and  _284
REMARK  127  A    between atoms: _284  and  _285
REMARK  128  A    between atoms: _284  and  _287
REMARK  129  A    between atoms: _287  and  _288
REMARK  130  A    between atoms: _291  and  _293
REMARK  131  A    between atoms: _293  and  _294
REMARK  132  A    between atoms: _293  and  _296
REMARK  133  A    between atoms: _296  and  _297
REMARK  134  A    between atoms: _300  and  _302
REMARK  135  A    between atoms: _302  and  _303
REMARK  136  A    between atoms: _306  and  _308
REMARK  137  A    between atoms: _308  and  _309
REMARK  138  A    between atoms: _308  and  _311
REMARK  139  A    between atoms: _311  and  _312
REMARK  140  A    between atoms: _312  and  _313
REMARK  141  A    between atoms: _313  and  _314
REMARK  142  A    between atoms: _314  and  _315
REMARK  143  A    between atoms: _319  and  _321
REMARK  144  A    between atoms: _321  and  _322
REMARK  145  A    between atoms: _321  and  _324
REMARK  146  A    between atoms: _324  and  _325
REMARK  147  A    between atoms: _327  and  _329
REMARK  148  A    between atoms: _329  and  _330
REMARK  149  A    between atoms: _332  and  _334
REMARK  150  A    between atoms: _334  and  _335
REMARK  151  A    between atoms: _334  and  _337
REMARK  152  A    between atoms: _337  and  _338
REMARK  153  A    between atoms: _341  and  _343
REMARK  154  A    between atoms: _343  and  _344
REMARK  155  A    between atoms: _343  and  _346
REMARK  156  A    between atoms: _346  and  _347
REMARK  157  A    between atoms: _350  and  _352
REMARK  158  A    between atoms: _352  and  _353
REMARK  159  A    between atoms: _355  and  _357
REMARK  160  A    between atoms: _357  and  _358
REMARK  161  A    between atoms: _357  and  _360
REMARK  162  A    between atoms: _360  and  _361
REMARK  163  A    between atoms: _367  and  _369
REMARK  164  A    between atoms: _369  and  _370
REMARK  165  A    between atoms: _372  and  _374
REMARK  166  A    between atoms: _374  and  _375
REMARK  167  A    between atoms: _374  and  _377
REMARK  168  A    between atoms: _380  and  _382
REMARK  169  A    between atoms: _382  and  _383
REMARK  170  A    between atoms: _385  and  _387
REMARK  171  A    between atoms: _387  and  _388
REMARK  172  A    between atoms: _387  and  _390
REMARK  173  A    between atoms: _390  and  _391
REMARK  174  A    between atoms: _397  and  _399
REMARK  175  A    between atoms: _399  and  _400
REMARK  176  A    between atoms: _399  and  _402
REMARK  177  A    between atoms: _402  and  _403
REMARK  178  A    between atoms: _408  and  _409
REMARK  179  A    between atoms: _411  and  _413
REMARK  180  A    between atoms: _413  and  _414
REMARK  181  A    between atoms: _413  and  _416
REMARK  182  A    between atoms: _416  and  _417
REMARK  183  A    between atoms: _419  and  _421
REMARK  184  A    between atoms: _421  and  _422
REMARK  185  A    between atoms: _425  and  _427
REMARK  186  A    between atoms: _427  and  _428
REMARK  187  A    between atoms: _427  and  _430
REMARK  188  A    between atoms: _433  and  _435
REMARK  189  A    between atoms: _435  and  _436
REMARK  190  A    between atoms: _435  and  _438
REMARK  191  A    between atoms: _438  and  _439
REMARK  192  A    between atoms: _442  and  _444
REMARK  193  A    between atoms: _444  and  _445
REMARK  194  A    between atoms: _444  and  _447
REMARK  195  A    between atoms: _447  and  _448
REMARK  196  A    between atoms: _451  and  _453
REMARK  197  A    between atoms: _453  and  _454
REMARK  198  A    between atoms: _453  and  _456
REMARK  199  A    between atoms: _456  and  _457
REMARK  200  A    between atoms: _457  and  _458
REMARK  201  A    between atoms: _458  and  _459
REMARK  202  A    between atoms: _459  and  _460
REMARK  203  A    between atoms: _464  and  _466
REMARK  204  A    between atoms: _466  and  _467
REMARK  205  A    between atoms: _466  and  _469
REMARK  206  A    between atoms: _469  and  _470
REMARK  207  A    between atoms: _475  and  _477
REMARK  208  A    between atoms: _477  and  _478
REMARK  209  A    between atoms: _480  and  _482
REMARK  210  A    between atoms: _482  and  _483
REMARK  211  A    between atoms: _482  and  _485
REMARK  212  A    between atoms: _485  and  _486
REMARK  213  A    between atoms: _489  and  _491
REMARK  214  A    between atoms: _491  and  _492
REMARK  215  A    between atoms: _491  and  _494
REMARK  216  A    between atoms: _494  and  _495
REMARK  217  A    between atoms: _495  and  _496
REMARK  218  A    between atoms: _496  and  _497
REMARK  219  A    between atoms: _497  and  _498
REMARK  220  A    between atoms: _502  and  _504
REMARK  221  A    between atoms: _504  and  _505
REMARK  222  A    between atoms: _504  and  _507
REMARK  223  A    between atoms: _510  and  _512
REMARK  224  A    between atoms: _512  and  _513
REMARK  225  A    between atoms: _512  and  _515
REMARK  226  A    between atoms: _515  and  _516
REMARK  227  A    between atoms: _516  and  _517
REMARK  228  A    between atoms: _517  and  _518
REMARK  229  A    between atoms: _518  and  _519
REMARK                            x       y       z     vdW  Elec       q    Type
REMARK                         _______ _______ _______ _____ _____    ______ ____
ROOT
ATOM      1  O   HOH     1      17.502  16.938  18.463  0.00  0.00    +0.000 OA
ENDROOT
TORSDOF 0
REMARK  Name = ../refined-set-2016/2qg0/2qg0_pocket.pdb
REMARK  229 active torsions:
REMARK  status: ('A' for Active; 'I' for Inactive)
REMARK    1  A    between atoms: _1  and  _3
REMARK    2  A    between atoms: _3  and  _4
REMARK    3  A    between atoms: _3  and  _6
REMARK    4  A    between atoms: _6  and  _7
REMARK    5  A    between atoms: _10  and  _12
REMARK    6  A    between atoms: _12  and  _13
REMARK    7  A    between atoms: _12  and  _15
REMARK    8  A    between atoms: _15  and  _16
REMARK    9  A    between atoms: _19  and  _21
REMARK   10  A    between atoms: _21  and  _22
REMARK   11  A    between atoms: _21  and  _24
REMARK   12  A    between atoms: _24  and  _25
REMARK   13  A    between atoms: _25  and  _26
REMARK   14  A    between atoms: _29  and  _31
REMARK   15  A    between atoms: _31  and  _32
REMARK   16  A    between atoms: _31  and  _34
REMARK   17  A    between atoms: _34  and  _35
REMARK   18  A    between atoms: _38  and  _40
REMARK   19  A    between atoms: _40  and  _41
REMARK   20  A    between atoms: _40  and  _43
REMARK   21  A    between atoms: _43  and  _44
REMARK   22  A    between atoms: _47  and  _49
REMARK   23  A    between atoms: _49  and  _50
REMARK   24  A    between atoms: _49  and  _52
REMARK   25  A    between atoms: _52  and  _53
REMARK   26  A    between atoms: _55  and  _57
REMARK   27  A    between atoms: _57  and  _58
REMARK   28  A    between atoms: _57  and  _60
REMARK   29  A    between atoms: _60  and  _61
REMARK   30  A    between atoms: _66  and  _68
REMARK   31  A    between atoms: _68  and  _69
REMARK   32  A    between atoms: _68  and  _71
REMARK   33  A    between atoms: _71  and  _72
REMARK   34  A    between atoms: _74  and  _76
REMARK   35  A    between atoms: _76  and  _77
REMARK   36  A    between atoms: _76  and  _79
REMARK   37  A    between atoms: _79  and  _80
REMARK   38  A    between atoms: _82  and  _84
REMARK   39  A    between atoms: _84  and  _85
REMARK   40  A    between atoms: _84  and  _87
REMARK   41  A    between atoms: _87  and  _88
REMARK   42  A    between atoms: _91  and  _93
REMARK   43  A    between atoms: _93  and  _94
REMARK   44  A    between atoms: _97  and  _99
REMARK   45  A    between atoms: _99  and  _100
REMARK   46  A    between atoms: _99  and  _102
REMARK   47  A    between atoms: _102  and  _103
REMARK   48  A    between atoms: _106  and  _108
REMARK   49  A    between atoms: _108  and  _109
REMARK   50  A    between atoms: _108  and  _111
REMARK   51  A    between atoms: _111  and  _112
REMARK   52  A    between atoms: _115  and  _117
REMARK   53  A    between atoms: _117  and  _118
REMARK   54  A    between atoms: _117  and  _120
REMARK   55  A    between atoms: _120  and  _121
REMARK   56  A    between atoms: _121  and  _122
REMARK   57  A    between atoms: _122  and  _123
REMARK   58  A    between atoms: _123  and  _124
REMARK   59  A    between atoms: _128  and  _130
REMARK   60  A    between atoms: _130  and  _131
REMARK   61  A    between atoms: _130  and  _133
REMARK   62  A    between atoms: _133  and  _134
REMARK   63  A    between atoms: _137  and  _139
REMARK   64  A    between atoms: _139  and  _140
REMARK   65  A    between atoms: _139  and  _142
REMARK   66  A    between atoms: _142  and  _143
REMARK   67  A    between atoms: _143  and  _144
REMARK   68  A    between atoms: _147  and  _149
REMARK   69  A    between atoms: _149  and  _150
REMARK   70  A    between atoms: _149  and  _152
REMARK   71  A    between atoms: _152  and  _153
REMARK   72  A    between atoms: _156  and  _158
REMARK   73  A    between atoms: _158  and  _159
REMARK   74  A    between atoms: _158  and  _161
REMARK   75  A    between atoms: _161  and  _162
REMARK   76  A    between atoms: _165  and  _167
REMARK   77  A    between atoms: _167  and  _168
REMARK   78  A    between atoms: _167  and  _170
REMARK   79  A    between atoms: _173  and  _175
REMARK   80  A    between atoms: _175  and  _176
REMARK   81  A    between atoms: _175  and  _178
REMARK   82  A    between atoms: _178  and  _179
REMARK   83  A    between atoms: _182  and  _184
REMARK   84  A    between atoms: _184  and  _185
REMARK   85  A    between atoms: _184  and  _187
REMARK   86  A    between atoms: _187  and  _188
REMARK   87  A    between atoms: _191  and  _193
REMARK   88  A    between atoms: _193  and  _194
REMARK   89  A    between atoms: _196  and  _198
REMARK   90  A    between atoms: _198  and  _199
REMARK   91  A    between atoms: _198  and  _201
REMARK   92  A    between atoms: _201  and  _202
REMARK   93  A    between atoms: _205  and  _207
REMARK   94  A    between atoms: _207  and  _208
REMARK   95  A    between atoms: _210  and  _212
REMARK   96  A    between atoms: _212  and  _213
REMARK   97  A    between atoms: _212  and  _215
REMARK   98  A    between atoms: _215  and  _216
REMARK   99  A    between atoms: _216  and  _217
REMARK  100  A    between atoms: _219  and  _221
REMARK  101  A    between atoms: _221  and  _222
REMARK  102  A    between atoms: _221  and  _224
REMARK  103  A    between atoms: _224  and  _225
REMARK  104  A    between atoms: _228  and  _230
REMARK  105  A    between atoms: _230  and  _231
REMARK  106  A    between atoms: _230  and  _233
REMARK  107  A    between atoms: _233  and  _234
REMARK  108  A    between atoms: _237  and  _239
REMARK  109  A    between atoms: _239  and  _240
REMARK  110  A    between atoms: _239  and  _242
REMARK  111  A    between atoms: _242  and  _243
REMARK  112  A    between atoms: _246  and  _248
REMARK  113  A    between atoms: _248  and  _249
REMARK  114  A    between atoms: _248  and  _251
REMARK  115  A    between atoms: _251  and  _252
REMARK  116  A    between atoms: _257  and  _259
REMARK  117  A    between atoms: _259  and  _260
REMARK  118  A    between atoms: _259  and  _262
REMARK  119  A    between atoms: _262  and  _263
REMARK  120  A    between atoms: _268  and  _270
REMARK  121  A    between atoms: _270  and  _271
REMARK  122  A    between atoms: _270  and  _273
REMARK  123  A    between atoms: _273  and  _274
REMARK  124  A    between atoms: _277  and  _279
REMARK  125  A    between atoms: _279  and  _280
REMARK  126  A    between atoms: _282  and  _284
REMARK  127  A    between atoms: _284  and  _285
REMARK  128  A    between atoms: _284  and  _287
REMARK  129  A    between atoms: _287  and  _288
REMARK  130  A    between atoms: _291  and  _293
REMARK  131  A    between atoms: _293  and  _294
REMARK  132  A    between atoms: _293  and  _296
REMARK  133  A    between atoms: _296  and  _297
REMARK  134  A    between atoms: _300  and  _302
REMARK  135  A    between atoms: _302  and  _303
REMARK  136  A    between atoms: _306  and  _308
REMARK  137  A    between atoms: _308  and  _309
REMARK  138  A    between atoms: _308  and  _311
REMARK  139  A    between atoms: _311  and  _312
REMARK  140  A    between atoms: _312  and  _313
REMARK  141  A    between atoms: _313  and  _314
REMARK  142  A    between atoms: _314  and  _315
REMARK  143  A    between atoms: _319  and  _321
REMARK  144  A    between atoms: _321  and  _322
REMARK  145  A    between atoms: _321  and  _324
REMARK  146  A    between atoms: _324  and  _325
REMARK  147  A    between atoms: _327  and  _329
REMARK  148  A    between atoms: _329  and  _330
REMARK  149  A    between atoms: _332  and  _334
REMARK  150  A    between atoms: _334  and  _335
REMARK  151  A    between atoms: _334  and  _337
REMARK  152  A    between atoms: _337  and  _338
REMARK  153  A    between atoms: _341  and  _343
REMARK  154  A    between atoms: _343  and  _344
REMARK  155  A    between atoms: _343  and  _346
REMARK  156  A    between atoms: _346  and  _347
REMARK  157  A    between atoms: _350  and  _352
REMARK  158  A    between atoms: _352  and  _353
REMARK  159  A    between atoms: _355  and  _357
REMARK  160  A    between atoms: _357  and  _358
REMARK  161  A    between atoms: _357  and  _360
REMARK  162  A    between atoms: _360  and  _361
REMARK  163  A    between atoms: _367  and  _369
REMARK  164  A    between atoms: _369  and  _370
REMARK  165  A    between atoms: _372  and  _374
REMARK  166  A    between atoms: _374  and  _375
REMARK  167  A    between atoms: _374  and  _377
REMARK  168  A    between atoms: _380  and  _382
REMARK  169  A    between atoms: _382  and  _383
REMARK  170  A    between atoms: _385  and  _387
REMARK  171  A    between atoms: _387  and  _388
REMARK  172  A    between atoms: _387  and  _390
REMARK  173  A    between atoms: _390  and  _391
REMARK  174  A    between atoms: _397  and  _399
REMARK  175  A    between atoms: _399  and  _400
REMARK  176  A    between atoms: _399  and  _402
REMARK  177  A    between atoms: _402  and  _403
REMARK  178  A    between atoms: _408  and  _409
REMARK  179  A    between atoms: _411  and  _413
REMARK  180  A    between atoms: _413  and  _414
REMARK  181  A    between atoms: _413  and  _416
REMARK  182  A    between atoms: _416  and  _417
REMARK  183  A    between atoms: _419  and  _421
REMARK  184  A    between atoms: _421  and  _422
REMARK  185  A    between atoms: _425  and  _427
REMARK  186  A    between atoms: _427  and  _428
REMARK  187  A    between atoms: _427  and  _430
REMARK  188  A    between atoms: _433  and  _435
REMARK  189  A    between atoms: _435  and  _436
REMARK  190  A    between atoms: _435  and  _438
REMARK  191  A    between atoms: _438  and  _439
REMARK  192  A    between atoms: _442  and  _444
REMARK  193  A    between atoms: _444  and  _445
REMARK  194  A    between atoms: _444  and  _447
REMARK  195  A    between atoms: _447  and  _448
REMARK  196  A    between atoms: _451  and  _453
REMARK  197  A    between atoms: _453  and  _454
REMARK  198  A    between atoms: _453  and  _456
REMARK  199  A    between atoms: _456  and  _457
REMARK  200  A    between atoms: _457  and  _458
REMARK  201  A    between atoms: _458  and  _459
REMARK  202  A    between atoms: _459  and  _460
REMARK  203  A    between atoms: _464  and  _466
REMARK  204  A    between atoms: _466  and  _467
REMARK  205  A    between atoms: _466  and  _469
REMARK  206  A    between atoms: _469  and  _470
REMARK  207  A    between atoms: _475  and  _477
REMARK  208  A    between atoms: _477  and  _478
REMARK  209  A    between atoms: _480  and  _482
REMARK  210  A    between atoms: _482  and  _483
REMARK  211  A    between atoms: _482  and  _485
REMARK  212  A    between atoms: _485  and  _486
REMARK  213  A    between atoms: _489  and  _491
REMARK  214  A    between atoms: _491  and  _492
REMARK  215  A    between atoms: _491  and  _494
REMARK  216  A    between atoms: _494  and  _495
REMARK  217  A    between atoms: _495  and  _496
REMARK  218  A    between atoms: _496  and  _497
REMARK  219  A    between atoms: _497  and  _498
REMARK  220  A    between atoms: _502  and  _504
REMARK  221  A    between atoms: _504  and  _505
REMARK  222  A    between atoms: _504  and  _507
REMARK  223  A    between atoms: _510  and  _512
REMARK  224  A    between atoms: _512  and  _513
REMARK  225  A    between atoms: _512  and  _515
REMARK  226  A    between atoms: _515  and  _516
REMARK  227  A    between atoms: _516  and  _517
REMARK  228  A    between atoms: _517  and  _518
REMARK  229  A    between atoms: _518  and  _519
REMARK                            x       y       z     vdW  Elec       q    Type
REMARK                         _______ _______ _______ _____ _____    ______ ____
ROOT
ATOM      1  O   HOH     1      13.894  20.656  12.726  0.00  0.00    +0.000 OA
ENDROOT
TORSDOF 0
REMARK  Name = ../refined-set-2016/2qg0/2qg0_pocket.pdb
REMARK  229 active torsions:
REMARK  status: ('A' for Active; 'I' for Inactive)
REMARK    1  A    between atoms: _1  and  _3
REMARK    2  A    between atoms: _3  and  _4
REMARK    3  A    between atoms: _3  and  _6
REMARK    4  A    between atoms: _6  and  _7
REMARK    5  A    between atoms: _10  and  _12
REMARK    6  A    between atoms: _12  and  _13
REMARK    7  A    between atoms: _12  and  _15
REMARK    8  A    between atoms: _15  and  _16
REMARK    9  A    between atoms: _19  and  _21
REMARK   10  A    between atoms: _21  and  _22
REMARK   11  A    between atoms: _21  and  _24
REMARK   12  A    between atoms: _24  and  _25
REMARK   13  A    between atoms: _25  and  _26
REMARK   14  A    between atoms: _29  and  _31
REMARK   15  A    between atoms: _31  and  _32
REMARK   16  A    between atoms: _31  and  _34
REMARK   17  A    between atoms: _34  and  _35
REMARK   18  A    between atoms: _38  and  _40
REMARK   19  A    between atoms: _40  and  _41
REMARK   20  A    between atoms: _40  and  _43
REMARK   21  A    between atoms: _43  and  _44
REMARK   22  A    between atoms: _47  and  _49
REMARK   23  A    between atoms: _49  and  _50
REMARK   24  A    between atoms: _49  and  _52
REMARK   25  A    between atoms: _52  and  _53
REMARK   26  A    between atoms: _55  and  _57
REMARK   27  A    between atoms: _57  and  _58
REMARK   28  A    between atoms: _57  and  _60
REMARK   29  A    between atoms: _60  and  _61
REMARK   30  A    between atoms: _66  and  _68
REMARK   31  A    between atoms: _68  and  _69
REMARK   32  A    between atoms: _68  and  _71
REMARK   33  A    between atoms: _71  and  _72
REMARK   34  A    between atoms: _74  and  _76
REMARK   35  A    between atoms: _76  and  _77
REMARK   36  A    between atoms: _76  and  _79
REMARK   37  A    between atoms: _79  and  _80
REMARK   38  A    between atoms: _82  and  _84
REMARK   39  A    between atoms: _84  and  _85
REMARK   40  A    between atoms: _84  and  _87
REMARK   41  A    between atoms: _87  and  _88
REMARK   42  A    between atoms: _91  and  _93
REMARK   43  A    between atoms: _93  and  _94
REMARK   44  A    between atoms: _97  and  _99
REMARK   45  A    between atoms: _99  and  _100
REMARK   46  A    between atoms: _99  and  _102
REMARK   47  A    between atoms: _102  and  _103
REMARK   48  A    between atoms: _106  and  _108
REMARK   49  A    between atoms: _108  and  _109
REMARK   50  A    between atoms: _108  and  _111
REMARK   51  A    between atoms: _111  and  _112
REMARK   52  A    between atoms: _115  and  _117
REMARK   53  A    between atoms: _117  and  _118
REMARK   54  A    between atoms: _117  and  _120
REMARK   55  A    between atoms: _120  and  _121
REMARK   56  A    between atoms: _121  and  _122
REMARK   57  A    between atoms: _122  and  _123
REMARK   58  A    between atoms: _123  and  _124
REMARK   59  A    between atoms: _128  and  _130
REMARK   60  A    between atoms: _130  and  _131
REMARK   61  A    between atoms: _130  and  _133
REMARK   62  A    between atoms: _133  and  _134
REMARK   63  A    between atoms: _137  and  _139
REMARK   64  A    between atoms: _139  and  _140
REMARK   65  A    between atoms: _139  and  _142
REMARK   66  A    between atoms: _142  and  _143
REMARK   67  A    between atoms: _143  and  _144
REMARK   68  A    between atoms: _147  and  _149
REMARK   69  A    between atoms: _149  and  _150
REMARK   70  A    between atoms: _149  and  _152
REMARK   71  A    between atoms: _152  and  _153
REMARK   72  A    between atoms: _156  and  _158
REMARK   73  A    between atoms: _158  and  _159
REMARK   74  A    between atoms: _158  and  _161
REMARK   75  A    between atoms: _161  and  _162
REMARK   76  A    between atoms: _165  and  _167
REMARK   77  A    between atoms: _167  and  _168
REMARK   78  A    between atoms: _167  and  _170
REMARK   79  A    between atoms: _173  and  _175
REMARK   80  A    between atoms: _175  and  _176
REMARK   81  A    between atoms: _175  and  _178
REMARK   82  A    between atoms: _178  and  _179
REMARK   83  A    between atoms: _182  and  _184
REMARK   84  A    between atoms: _184  and  _185
REMARK   85  A    between atoms: _184  and  _187
REMARK   86  A    between atoms: _187  and  _188
REMARK   87  A    between atoms: _191  and  _193
REMARK   88  A    between atoms: _193  and  _194
REMARK   89  A    between atoms: _196  and  _198
REMARK   90  A    between atoms: _198  and  _199
REMARK   91  A    between atoms: _198  and  _201
REMARK   92  A    between atoms: _201  and  _202
REMARK   93  A    between atoms: _205  and  _207
REMARK   94  A    between atoms: _207  and  _208
REMARK   95  A    between atoms: _210  and  _212
REMARK   96  A    between atoms: _212  and  _213
REMARK   97  A    between atoms: _212  and  _215
REMARK   98  A    between atoms: _215  and  _216
REMARK   99  A    between atoms: _216  and  _217
REMARK  100  A    between atoms: _219  and  _221
REMARK  101  A    between atoms: _221  and  _222
REMARK  102  A    between atoms: _221  and  _224
REMARK  103  A    between atoms: _224  and  _225
REMARK  104  A    between atoms: _228  and  _230
REMARK  105  A    between atoms: _230  and  _231
REMARK  106  A    between atoms: _230  and  _233
REMARK  107  A    between atoms: _233  and  _234
REMARK  108  A    between atoms: _237  and  _239
REMARK  109  A    between atoms: _239  and  _240
REMARK  110  A    between atoms: _239  and  _242
REMARK  111  A    between atoms: _242  and  _243
REMARK  112  A    between atoms: _246  and  _248
REMARK  113  A    between atoms: _248  and  _249
REMARK  114  A    between atoms: _248  and  _251
REMARK  115  A    between atoms: _251  and  _252
REMARK  116  A    between atoms: _257  and  _259
REMARK  117  A    between atoms: _259  and  _260
REMARK  118  A    between atoms: _259  and  _262
REMARK  119  A    between atoms: _262  and  _263
REMARK  120  A    between atoms: _268  and  _270
REMARK  121  A    between atoms: _270  and  _271
REMARK  122  A    between atoms: _270  and  _273
REMARK  123  A    between atoms: _273  and  _274
REMARK  124  A    between atoms: _277  and  _279
REMARK  125  A    between atoms: _279  and  _280
REMARK  126  A    between atoms: _282  and  _284
REMARK  127  A    between atoms: _284  and  _285
REMARK  128  A    between atoms: _284  and  _287
REMARK  129  A    between atoms: _287  and  _288
REMARK  130  A    between atoms: _291  and  _293
REMARK  131  A    between atoms: _293  and  _294
REMARK  132  A    between atoms: _293  and  _296
REMARK  133  A    between atoms: _296  and  _297
REMARK  134  A    between atoms: _300  and  _302
REMARK  135  A    between atoms: _302  and  _303
REMARK  136  A    between atoms: _306  and  _308
REMARK  137  A    between atoms: _308  and  _309
REMARK  138  A    between atoms: _308  and  _311
REMARK  139  A    between atoms: _311  and  _312
REMARK  140  A    between atoms: _312  and  _313
REMARK  141  A    between atoms: _313  and  _314
REMARK  142  A    between atoms: _314  and  _315
REMARK  143  A    between atoms: _319  and  _321
REMARK  144  A    between atoms: _321  and  _322
REMARK  145  A    between atoms: _321  and  _324
REMARK  146  A    between atoms: _324  and  _325
REMARK  147  A    between atoms: _327  and  _329
REMARK  148  A    between atoms: _329  and  _330
REMARK  149  A    between atoms: _332  and  _334
REMARK  150  A    between atoms: _334  and  _335
REMARK  151  A    between atoms: _334  and  _337
REMARK  152  A    between atoms: _337  and  _338
REMARK  153  A    between atoms: _341  and  _343
REMARK  154  A    between atoms: _343  and  _344
REMARK  155  A    between atoms: _343  and  _346
REMARK  156  A    between atoms: _346  and  _347
REMARK  157  A    between atoms: _350  and  _352
REMARK  158  A    between atoms: _352  and  _353
REMARK  159  A    between atoms: _355  and  _357
REMARK  160  A    between atoms: _357  and  _358
REMARK  161  A    between atoms: _357  and  _360
REMARK  162  A    between atoms: _360  and  _361
REMARK  163  A    between atoms: _367  and  _369
REMARK  164  A    between atoms: _369  and  _370
REMARK  165  A    between atoms: _372  and  _374
REMARK  166  A    between atoms: _374  and  _375
REMARK  167  A    between atoms: _374  and  _377
REMARK  168  A    between atoms: _380  and  _382
REMARK  169  A    between atoms: _382  and  _383
REMARK  170  A    between atoms: _385  and  _387
REMARK  171  A    between atoms: _387  and  _388
REMARK  172  A    between atoms: _387  and  _390
REMARK  173  A    between atoms: _390  and  _391
REMARK  174  A    between atoms: _397  and  _399
REMARK  175  A    between atoms: _399  and  _400
REMARK  176  A    between atoms: _399  and  _402
REMARK  177  A    between atoms: _402  and  _403
REMARK  178  A    between atoms: _408  and  _409
REMARK  179  A    between atoms: _411  and  _413
REMARK  180  A    between atoms: _413  and  _414
REMARK  181  A    between atoms: _413  and  _416
REMARK  182  A    between atoms: _416  and  _417
REMARK  183  A    between atoms: _419  and  _421
REMARK  184  A    between atoms: _421  and  _422
REMARK  185  A    between atoms: _425  and  _427
REMARK  186  A    between atoms: _427  and  _428
REMARK  187  A    between atoms: _427  and  _430
REMARK  188  A    between atoms: _433  and  _435
REMARK  189  A    between atoms: _435  and  _436
REMARK  190  A    between atoms: _435  and  _438
REMARK  191  A    between atoms: _438  and  _439
REMARK  192  A    between atoms: _442  and  _444
REMARK  193  A    between atoms: _444  and  _445
REMARK  194  A    between atoms: _444  and  _447
REMARK  195  A    between atoms: _447  and  _448
REMARK  196  A    between atoms: _451  and  _453
REMARK  197  A    between atoms: _453  and  _454
REMARK  198  A    between atoms: _453  and  _456
REMARK  199  A    between atoms: _456  and  _457
REMARK  200  A    between atoms: _457  and  _458
REMARK  201  A    between atoms: _458  and  _459
REMARK  202  A    between atoms: _459  and  _460
REMARK  203  A    between atoms: _464  and  _466
REMARK  204  A    between atoms: _466  and  _467
REMARK  205  A    between atoms: _466  and  _469
REMARK  206  A    between atoms: _469  and  _470
REMARK  207  A    between atoms: _475  and  _477
REMARK  208  A    between atoms: _477  and  _478
REMARK  209  A    between atoms: _480  and  _482
REMARK  210  A    between atoms: _482  and  _483
REMARK  211  A    between atoms: _482  and  _485
REMARK  212  A    between atoms: _485  and  _486
REMARK  213  A    between atoms: _489  and  _491
REMARK  214  A    between atoms: _491  and  _492
REMARK  215  A    between atoms: _491  and  _494
REMARK  216  A    between atoms: _494  and  _495
REMARK  217  A    between atoms: _495  and  _496
REMARK  218  A    between atoms: _496  and  _497
REMARK  219  A    between atoms: _497  and  _498
REMARK  220  A    between atoms: _502  and  _504
REMARK  221  A    between atoms: _504  and  _505
REMARK  222  A    between atoms: _504  and  _507
REMARK  223  A    between atoms: _510  and  _512
REMARK  224  A    between atoms: _512  and  _513
REMARK  225  A    between atoms: _512  and  _515
REMARK  226  A    between atoms: _515  and  _516
REMARK  227  A    between atoms: _516  and  _517
REMARK  228  A    between atoms: _517  and  _518
REMARK  229  A    between atoms: _518  and  _519
REMARK                            x       y       z     vdW  Elec       q    Type
REMARK                         _______ _______ _______ _____ _____    ______ ____
ROOT
ATOM      1  O   HOH     1      21.285  21.215   9.097  0.00  0.00    +0.000 OA
ENDROOT
TORSDOF 0
REMARK  Name = ../refined-set-2016/2qg0/2qg0_pocket.pdb
REMARK  229 active torsions:
REMARK  status: ('A' for Active; 'I' for Inactive)
REMARK    1  A    between atoms: _1  and  _3
REMARK    2  A    between atoms: _3  and  _4
REMARK    3  A    between atoms: _3  and  _6
REMARK    4  A    between atoms: _6  and  _7
REMARK    5  A    between atoms: _10  and  _12
REMARK    6  A    between atoms: _12  and  _13
REMARK    7  A    between atoms: _12  and  _15
REMARK    8  A    between atoms: _15  and  _16
REMARK    9  A    between atoms: _19  and  _21
REMARK   10  A    between atoms: _21  and  _22
REMARK   11  A    between atoms: _21  and  _24
REMARK   12  A    between atoms: _24  and  _25
REMARK   13  A    between atoms: _25  and  _26
REMARK   14  A    between atoms: _29  and  _31
REMARK   15  A    between atoms: _31  and  _32
REMARK   16  A    between atoms: _31  and  _34
REMARK   17  A    between atoms: _34  and  _35
REMARK   18  A    between atoms: _38  and  _40
REMARK   19  A    between atoms: _40  and  _41
REMARK   20  A    between atoms: _40  and  _43
REMARK   21  A    between atoms: _43  and  _44
REMARK   22  A    between atoms: _47  and  _49
REMARK   23  A    between atoms: _49  and  _50
REMARK   24  A    between atoms: _49  and  _52
REMARK   25  A    between atoms: _52  and  _53
REMARK   26  A    between atoms: _55  and  _57
REMARK   27  A    between atoms: _57  and  _58
REMARK   28  A    between atoms: _57  and  _60
REMARK   29  A    between atoms: _60  and  _61
REMARK   30  A    between atoms: _66  and  _68
REMARK   31  A    between atoms: _68  and  _69
REMARK   32  A    between atoms: _68  and  _71
REMARK   33  A    between atoms: _71  and  _72
REMARK   34  A    between atoms: _74  and  _76
REMARK   35  A    between atoms: _76  and  _77
REMARK   36  A    between atoms: _76  and  _79
REMARK   37  A    between atoms: _79  and  _80
REMARK   38  A    between atoms: _82  and  _84
REMARK   39  A    between atoms: _84  and  _85
REMARK   40  A    between atoms: _84  and  _87
REMARK   41  A    between atoms: _87  and  _88
REMARK   42  A    between atoms: _91  and  _93
REMARK   43  A    between atoms: _93  and  _94
REMARK   44  A    between atoms: _97  and  _99
REMARK   45  A    between atoms: _99  and  _100
REMARK   46  A    between atoms: _99  and  _102
REMARK   47  A    between atoms: _102  and  _103
REMARK   48  A    between atoms: _106  and  _108
REMARK   49  A    between atoms: _108  and  _109
REMARK   50  A    between atoms: _108  and  _111
REMARK   51  A    between atoms: _111  and  _112
REMARK   52  A    between atoms: _115  and  _117
REMARK   53  A    between atoms: _117  and  _118
REMARK   54  A    between atoms: _117  and  _120
REMARK   55  A    between atoms: _120  and  _121
REMARK   56  A    between atoms: _121  and  _122
REMARK   57  A    between atoms: _122  and  _123
REMARK   58  A    between atoms: _123  and  _124
REMARK   59  A    between atoms: _128  and  _130
REMARK   60  A    between atoms: _130  and  _131
REMARK   61  A    between atoms: _130  and  _133
REMARK   62  A    between atoms: _133  and  _134
REMARK   63  A    between atoms: _137  and  _139
REMARK   64  A    between atoms: _139  and  _140
REMARK   65  A    between atoms: _139  and  _142
REMARK   66  A    between atoms: _142  and  _143
REMARK   67  A    between atoms: _143  and  _144
REMARK   68  A    between atoms: _147  and  _149
REMARK   69  A    between atoms: _149  and  _150
REMARK   70  A    between atoms: _149  and  _152
REMARK   71  A    between atoms: _152  and  _153
REMARK   72  A    between atoms: _156  and  _158
REMARK   73  A    between atoms: _158  and  _159
REMARK   74  A    between atoms: _158  and  _161
REMARK   75  A    between atoms: _161  and  _162
REMARK   76  A    between atoms: _165  and  _167
REMARK   77  A    between atoms: _167  and  _168
REMARK   78  A    between atoms: _167  and  _170
REMARK   79  A    between atoms: _173  and  _175
REMARK   80  A    between atoms: _175  and  _176
REMARK   81  A    between atoms: _175  and  _178
REMARK   82  A    between atoms: _178  and  _179
REMARK   83  A    between atoms: _182  and  _184
REMARK   84  A    between atoms: _184  and  _185
REMARK   85  A    between atoms: _184  and  _187
REMARK   86  A    between atoms: _187  and  _188
REMARK   87  A    between atoms: _191  and  _193
REMARK   88  A    between atoms: _193  and  _194
REMARK   89  A    between atoms: _196  and  _198
REMARK   90  A    between atoms: _198  and  _199
REMARK   91  A    between atoms: _198  and  _201
REMARK   92  A    between atoms: _201  and  _202
REMARK   93  A    between atoms: _205  and  _207
REMARK   94  A    between atoms: _207  and  _208
REMARK   95  A    between atoms: _210  and  _212
REMARK   96  A    between atoms: _212  and  _213
REMARK   97  A    between atoms: _212  and  _215
REMARK   98  A    between atoms: _215  and  _216
REMARK   99  A    between atoms: _216  and  _217
REMARK  100  A    between atoms: _219  and  _221
REMARK  101  A    between atoms: _221  and  _222
REMARK  102  A    between atoms: _221  and  _224
REMARK  103  A    between atoms: _224  and  _225
REMARK  104  A    between atoms: _228  and  _230
REMARK  105  A    between atoms: _230  and  _231
REMARK  106  A    between atoms: _230  and  _233
REMARK  107  A    between atoms: _233  and  _234
REMARK  108  A    between atoms: _237  and  _239
REMARK  109  A    between atoms: _239  and  _240
REMARK  110  A    between atoms: _239  and  _242
REMARK  111  A    between atoms: _242  and  _243
REMARK  112  A    between atoms: _246  and  _248
REMARK  113  A    between atoms: _248  and  _249
REMARK  114  A    between atoms: _248  and  _251
REMARK  115  A    between atoms: _251  and  _252
REMARK  116  A    between atoms: _257  and  _259
REMARK  117  A    between atoms: _259  and  _260
REMARK  118  A    between atoms: _259  and  _262
REMARK  119  A    between atoms: _262  and  _263
REMARK  120  A    between atoms: _268  and  _270
REMARK  121  A    between atoms: _270  and  _271
REMARK  122  A    between atoms: _270  and  _273
REMARK  123  A    between atoms: _273  and  _274
REMARK  124  A    between atoms: _277  and  _279
REMARK  125  A    between atoms: _279  and  _280
REMARK  126  A    between atoms: _282  and  _284
REMARK  127  A    between atoms: _284  and  _285
REMARK  128  A    between atoms: _284  and  _287
REMARK  129  A    between atoms: _287  and  _288
REMARK  130  A    between atoms: _291  and  _293
REMARK  131  A    between atoms: _293  and  _294
REMARK  132  A    between atoms: _293  and  _296
REMARK  133  A    between atoms: _296  and  _297
REMARK  134  A    between atoms: _300  and  _302
REMARK  135  A    between atoms: _302  and  _303
REMARK  136  A    between atoms: _306  and  _308
REMARK  137  A    between atoms: _308  and  _309
REMARK  138  A    between atoms: _308  and  _311
REMARK  139  A    between atoms: _311  and  _312
REMARK  140  A    between atoms: _312  and  _313
REMARK  141  A    between atoms: _313  and  _314
REMARK  142  A    between atoms: _314  and  _315
REMARK  143  A    between atoms: _319  and  _321
REMARK  144  A    between atoms: _321  and  _322
REMARK  145  A    between atoms: _321  and  _324
REMARK  146  A    between atoms: _324  and  _325
REMARK  147  A    between atoms: _327  and  _329
REMARK  148  A    between atoms: _329  and  _330
REMARK  149  A    between atoms: _332  and  _334
REMARK  150  A    between atoms: _334  and  _335
REMARK  151  A    between atoms: _334  and  _337
REMARK  152  A    between atoms: _337  and  _338
REMARK  153  A    between atoms: _341  and  _343
REMARK  154  A    between atoms: _343  and  _344
REMARK  155  A    between atoms: _343  and  _346
REMARK  156  A    between atoms: _346  and  _347
REMARK  157  A    between atoms: _350  and  _352
REMARK  158  A    between atoms: _352  and  _353
REMARK  159  A    between atoms: _355  and  _357
REMARK  160  A    between atoms: _357  and  _358
REMARK  161  A    between atoms: _357  and  _360
REMARK  162  A    between atoms: _360  and  _361
REMARK  163  A    between atoms: _367  and  _369
REMARK  164  A    between atoms: _369  and  _370
REMARK  165  A    between atoms: _372  and  _374
REMARK  166  A    between atoms: _374  and  _375
REMARK  167  A    between atoms: _374  and  _377
REMARK  168  A    between atoms: _380  and  _382
REMARK  169  A    between atoms: _382  and  _383
REMARK  170  A    between atoms: _385  and  _387
REMARK  171  A    between atoms: _387  and  _388
REMARK  172  A    between atoms: _387  and  _390
REMARK  173  A    between atoms: _390  and  _391
REMARK  174  A    between atoms: _397  and  _399
REMARK  175  A    between atoms: _399  and  _400
REMARK  176  A    between atoms: _399  and  _402
REMARK  177  A    between atoms: _402  and  _403
REMARK  178  A    between atoms: _408  and  _409
REMARK  179  A    between atoms: _411  and  _413
REMARK  180  A    between atoms: _413  and  _414
REMARK  181  A    between atoms: _413  and  _416
REMARK  182  A    between atoms: _416  and  _417
REMARK  183  A    between atoms: _419  and  _421
REMARK  184  A    between atoms: _421  and  _422
REMARK  185  A    between atoms: _425  and  _427
REMARK  186  A    between atoms: _427  and  _428
REMARK  187  A    between atoms: _427  and  _430
REMARK  188  A    between atoms: _433  and  _435
REMARK  189  A    between atoms: _435  and  _436
REMARK  190  A    between atoms: _435  and  _438
REMARK  191  A    between atoms: _438  and  _439
REMARK  192  A    between atoms: _442  and  _444
REMARK  193  A    between atoms: _444  and  _445
REMARK  194  A    between atoms: _444  and  _447
REMARK  195  A    between atoms: _447  and  _448
REMARK  196  A    between atoms: _451  and  _453
REMARK  197  A    between atoms: _453  and  _454
REMARK  198  A    between atoms: _453  and  _456
REMARK  199  A    between atoms: _456  and  _457
REMARK  200  A    between atoms: _457  and  _458
REMARK  201  A    between atoms: _458  and  _459
REMARK  202  A    between atoms: _459  and  _460
REMARK  203  A    between atoms: _464  and  _466
REMARK  204  A    between atoms: _466  and  _467
REMARK  205  A    between atoms: _466  and  _469
REMARK  206  A    between atoms: _469  and  _470
REMARK  207  A    between atoms: _475  and  _477
REMARK  208  A    between atoms: _477  and  _478
REMARK  209  A    between atoms: _480  and  _482
REMARK  210  A    between atoms: _482  and  _483
REMARK  211  A    between atoms: _482  and  _485
REMARK  212  A    between atoms: _485  and  _486
REMARK  213  A    between atoms: _489  and  _491
REMARK  214  A    between atoms: _491  and  _492
REMARK  215  A    between atoms: _491  and  _494
REMARK  216  A    between atoms: _494  and  _495
REMARK  217  A    between atoms: _495  and  _496
REMARK  218  A    between atoms: _496  and  _497
REMARK  219  A    between atoms: _497  and  _498
REMARK  220  A    between atoms: _502  and  _504
REMARK  221  A    between atoms: _504  and  _505
REMARK  222  A    between atoms: _504  and  _507
REMARK  223  A    between atoms: _510  and  _512
REMARK  224  A    between atoms: _512  and  _513
REMARK  225  A    between atoms: _512  and  _515
REMARK  226  A    between atoms: _515  and  _516
REMARK  227  A    between atoms: _516  and  _517
REMARK  228  A    between atoms: _517  and  _518
REMARK  229  A    between atoms: _518  and  _519
REMARK                            x       y       z     vdW  Elec       q    Type
REMARK                         _______ _______ _______ _____ _____    ______ ____
ROOT
ATOM      1  O   HOH     1      15.296  15.165  18.300  0.00  0.00    +0.000 OA
ENDROOT
TORSDOF 0
REMARK  Name = ../refined-set-2016/2qg0/2qg0_pocket.pdb
REMARK  229 active torsions:
REMARK  status: ('A' for Active; 'I' for Inactive)
REMARK    1  A    between atoms: _1  and  _3
REMARK    2  A    between atoms: _3  and  _4
REMARK    3  A    between atoms: _3  and  _6
REMARK    4  A    between atoms: _6  and  _7
REMARK    5  A    between atoms: _10  and  _12
REMARK    6  A    between atoms: _12  and  _13
REMARK    7  A    between atoms: _12  and  _15
REMARK    8  A    between atoms: _15  and  _16
REMARK    9  A    between atoms: _19  and  _21
REMARK   10  A    between atoms: _21  and  _22
REMARK   11  A    between atoms: _21  and  _24
REMARK   12  A    between atoms: _24  and  _25
REMARK   13  A    between atoms: _25  and  _26
REMARK   14  A    between atoms: _29  and  _31
REMARK   15  A    between atoms: _31  and  _32
REMARK   16  A    between atoms: _31  and  _34
REMARK   17  A    between atoms: _34  and  _35
REMARK   18  A    between atoms: _38  and  _40
REMARK   19  A    between atoms: _40  and  _41
REMARK   20  A    between atoms: _40  and  _43
REMARK   21  A    between atoms: _43  and  _44
REMARK   22  A    between atoms: _47  and  _49
REMARK   23  A    between atoms: _49  and  _50
REMARK   24  A    between atoms: _49  and  _52
REMARK   25  A    between atoms: _52  and  _53
REMARK   26  A    between atoms: _55  and  _57
REMARK   27  A    between atoms: _57  and  _58
REMARK   28  A    between atoms: _57  and  _60
REMARK   29  A    between atoms: _60  and  _61
REMARK   30  A    between atoms: _66  and  _68
REMARK   31  A    between atoms: _68  and  _69
REMARK   32  A    between atoms: _68  and  _71
REMARK   33  A    between atoms: _71  and  _72
REMARK   34  A    between atoms: _74  and  _76
REMARK   35  A    between atoms: _76  and  _77
REMARK   36  A    between atoms: _76  and  _79
REMARK   37  A    between atoms: _79  and  _80
REMARK   38  A    between atoms: _82  and  _84
REMARK   39  A    between atoms: _84  and  _85
REMARK   40  A    between atoms: _84  and  _87
REMARK   41  A    between atoms: _87  and  _88
REMARK   42  A    between atoms: _91  and  _93
REMARK   43  A    between atoms: _93  and  _94
REMARK   44  A    between atoms: _97  and  _99
REMARK   45  A    between atoms: _99  and  _100
REMARK   46  A    between atoms: _99  and  _102
REMARK   47  A    between atoms: _102  and  _103
REMARK   48  A    between atoms: _106  and  _108
REMARK   49  A    between atoms: _108  and  _109
REMARK   50  A    between atoms: _108  and  _111
REMARK   51  A    between atoms: _111  and  _112
REMARK   52  A    between atoms: _115  and  _117
REMARK   53  A    between atoms: _117  and  _118
REMARK   54  A    between atoms: _117  and  _120
REMARK   55  A    between atoms: _120  and  _121
REMARK   56  A    between atoms: _121  and  _122
REMARK   57  A    between atoms: _122  and  _123
REMARK   58  A    between atoms: _123  and  _124
REMARK   59  A    between atoms: _128  and  _130
REMARK   60  A    between atoms: _130  and  _131
REMARK   61  A    between atoms: _130  and  _133
REMARK   62  A    between atoms: _133  and  _134
REMARK   63  A    between atoms: _137  and  _139
REMARK   64  A    between atoms: _139  and  _140
REMARK   65  A    between atoms: _139  and  _142
REMARK   66  A    between atoms: _142  and  _143
REMARK   67  A    between atoms: _143  and  _144
REMARK   68  A    between atoms: _147  and  _149
REMARK   69  A    between atoms: _149  and  _150
REMARK   70  A    between atoms: _149  and  _152
REMARK   71  A    between atoms: _152  and  _153
REMARK   72  A    between atoms: _156  and  _158
REMARK   73  A    between atoms: _158  and  _159
REMARK   74  A    between atoms: _158  and  _161
REMARK   75  A    between atoms: _161  and  _162
REMARK   76  A    between atoms: _165  and  _167
REMARK   77  A    between atoms: _167  and  _168
REMARK   78  A    between atoms: _167  and  _170
REMARK   79  A    between atoms: _173  and  _175
REMARK   80  A    between atoms: _175  and  _176
REMARK   81  A    between atoms: _175  and  _178
REMARK   82  A    between atoms: _178  and  _179
REMARK   83  A    between atoms: _182  and  _184
REMARK   84  A    between atoms: _184  and  _185
REMARK   85  A    between atoms: _184  and  _187
REMARK   86  A    between atoms: _187  and  _188
REMARK   87  A    between atoms: _191  and  _193
REMARK   88  A    between atoms: _193  and  _194
REMARK   89  A    between atoms: _196  and  _198
REMARK   90  A    between atoms: _198  and  _199
REMARK   91  A    between atoms: _198  and  _201
REMARK   92  A    between atoms: _201  and  _202
REMARK   93  A    between atoms: _205  and  _207
REMARK   94  A    between atoms: _207  and  _208
REMARK   95  A    between atoms: _210  and  _212
REMARK   96  A    between atoms: _212  and  _213
REMARK   97  A    between atoms: _212  and  _215
REMARK   98  A    between atoms: _215  and  _216
REMARK   99  A    between atoms: _216  and  _217
REMARK  100  A    between atoms: _219  and  _221
REMARK  101  A    between atoms: _221  and  _222
REMARK  102  A    between atoms: _221  and  _224
REMARK  103  A    between atoms: _224  and  _225
REMARK  104  A    between atoms: _228  and  _230
REMARK  105  A    between atoms: _230  and  _231
REMARK  106  A    between atoms: _230  and  _233
REMARK  107  A    between atoms: _233  and  _234
REMARK  108  A    between atoms: _237  and  _239
REMARK  109  A    between atoms: _239  and  _240
REMARK  110  A    between atoms: _239  and  _242
REMARK  111  A    between atoms: _242  and  _243
REMARK  112  A    between atoms: _246  and  _248
REMARK  113  A    between atoms: _248  and  _249
REMARK  114  A    between atoms: _248  and  _251
REMARK  115  A    between atoms: _251  and  _252
REMARK  116  A    between atoms: _257  and  _259
REMARK  117  A    between atoms: _259  and  _260
REMARK  118  A    between atoms: _259  and  _262
REMARK  119  A    between atoms: _262  and  _263
REMARK  120  A    between atoms: _268  and  _270
REMARK  121  A    between atoms: _270  and  _271
REMARK  122  A    between atoms: _270  and  _273
REMARK  123  A    between atoms: _273  and  _274
REMARK  124  A    between atoms: _277  and  _279
REMARK  125  A    between atoms: _279  and  _280
REMARK  126  A    between atoms: _282  and  _284
REMARK  127  A    between atoms: _284  and  _285
REMARK  128  A    between atoms: _284  and  _287
REMARK  129  A    between atoms: _287  and  _288
REMARK  130  A    between atoms: _291  and  _293
REMARK  131  A    between atoms: _293  and  _294
REMARK  132  A    between atoms: _293  and  _296
REMARK  133  A    between atoms: _296  and  _297
REMARK  134  A    between atoms: _300  and  _302
REMARK  135  A    between atoms: _302  and  _303
REMARK  136  A    between atoms: _306  and  _308
REMARK  137  A    between atoms: _308  and  _309
REMARK  138  A    between atoms: _308  and  _311
REMARK  139  A    between atoms: _311  and  _312
REMARK  140  A    between atoms: _312  and  _313
REMARK  141  A    between atoms: _313  and  _314
REMARK  142  A    between atoms: _314  and  _315
REMARK  143  A    between atoms: _319  and  _321
REMARK  144  A    between atoms: _321  and  _322
REMARK  145  A    between atoms: _321  and  _324
REMARK  146  A    between atoms: _324  and  _325
REMARK  147  A    between atoms: _327  and  _329
REMARK  148  A    between atoms: _329  and  _330
REMARK  149  A    between atoms: _332  and  _334
REMARK  150  A    between atoms: _334  and  _335
REMARK  151  A    between atoms: _334  and  _337
REMARK  152  A    between atoms: _337  and  _338
REMARK  153  A    between atoms: _341  and  _343
REMARK  154  A    between atoms: _343  and  _344
REMARK  155  A    between atoms: _343  and  _346
REMARK  156  A    between atoms: _346  and  _347
REMARK  157  A    between atoms: _350  and  _352
REMARK  158  A    between atoms: _352  and  _353
REMARK  159  A    between atoms: _355  and  _357
REMARK  160  A    between atoms: _357  and  _358
REMARK  161  A    between atoms: _357  and  _360
REMARK  162  A    between atoms: _360  and  _361
REMARK  163  A    between atoms: _367  and  _369
REMARK  164  A    between atoms: _369  and  _370
REMARK  165  A    between atoms: _372  and  _374
REMARK  166  A    between atoms: _374  and  _375
REMARK  167  A    between atoms: _374  and  _377
REMARK  168  A    between atoms: _380  and  _382
REMARK  169  A    between atoms: _382  and  _383
REMARK  170  A    between atoms: _385  and  _387
REMARK  171  A    between atoms: _387  and  _388
REMARK  172  A    between atoms: _387  and  _390
REMARK  173  A    between atoms: _390  and  _391
REMARK  174  A    between atoms: _397  and  _399
REMARK  175  A    between atoms: _399  and  _400
REMARK  176  A    between atoms: _399  and  _402
REMARK  177  A    between atoms: _402  and  _403
REMARK  178  A    between atoms: _408  and  _409
REMARK  179  A    between atoms: _411  and  _413
REMARK  180  A    between atoms: _413  and  _414
REMARK  181  A    between atoms: _413  and  _416
REMARK  182  A    between atoms: _416  and  _417
REMARK  183  A    between atoms: _419  and  _421
REMARK  184  A    between atoms: _421  and  _422
REMARK  185  A    between atoms: _425  and  _427
REMARK  186  A    between atoms: _427  and  _428
REMARK  187  A    between atoms: _427  and  _430
REMARK  188  A    between atoms: _433  and  _435
REMARK  189  A    between atoms: _435  and  _436
REMARK  190  A    between atoms: _435  and  _438
REMARK  191  A    between atoms: _438  and  _439
REMARK  192  A    between atoms: _442  and  _444
REMARK  193  A    between atoms: _444  and  _445
REMARK  194  A    between atoms: _444  and  _447
REMARK  195  A    between atoms: _447  and  _448
REMARK  196  A    between atoms: _451  and  _453
REMARK  197  A    between atoms: _453  and  _454
REMARK  198  A    between atoms: _453  and  _456
REMARK  199  A    between atoms: _456  and  _457
REMARK  200  A    between atoms: _457  and  _458
REMARK  201  A    between atoms: _458  and  _459
REMARK  202  A    between atoms: _459  and  _460
REMARK  203  A    between atoms: _464  and  _466
REMARK  204  A    between atoms: _466  and  _467
REMARK  205  A    between atoms: _466  and  _469
REMARK  206  A    between atoms: _469  and  _470
REMARK  207  A    between atoms: _475  and  _477
REMARK  208  A    between atoms: _477  and  _478
REMARK  209  A    between atoms: _480  and  _482
REMARK  210  A    between atoms: _482  and  _483
REMARK  211  A    between atoms: _482  and  _485
REMARK  212  A    between atoms: _485  and  _486
REMARK  213  A    between atoms: _489  and  _491
REMARK  214  A    between atoms: _491  and  _492
REMARK  215  A    between atoms: _491  and  _494
REMARK  216  A    between atoms: _494  and  _495
REMARK  217  A    between atoms: _495  and  _496
REMARK  218  A    between atoms: _496  and  _497
REMARK  219  A    between atoms: _497  and  _498
REMARK  220  A    between atoms: _502  and  _504
REMARK  221  A    between atoms: _504  and  _505
REMARK  222  A    between atoms: _504  and  _507
REMARK  223  A    between atoms: _510  and  _512
REMARK  224  A    between atoms: _512  and  _513
REMARK  225  A    between atoms: _512  and  _515
REMARK  226  A    between atoms: _515  and  _516
REMARK  227  A    between atoms: _516  and  _517
REMARK  228  A    between atoms: _517  and  _518
REMARK  229  A    between atoms: _518  and  _519
REMARK                            x       y       z     vdW  Elec       q    Type
REMARK                         _______ _______ _______ _____ _____    ______ ____
ROOT
ATOM      1  O   HOH     1      16.512  16.088  15.086  0.00  0.00    +0.000 OA
ENDROOT
TORSDOF 0
REMARK  Name = ../refined-set-2016/2qg0/2qg0_pocket.pdb
REMARK  229 active torsions:
REMARK  status: ('A' for Active; 'I' for Inactive)
REMARK    1  A    between atoms: _1  and  _3
REMARK    2  A    between atoms: _3  and  _4
REMARK    3  A    between atoms: _3  and  _6
REMARK    4  A    between atoms: _6  and  _7
REMARK    5  A    between atoms: _10  and  _12
REMARK    6  A    between atoms: _12  and  _13
REMARK    7  A    between atoms: _12  and  _15
REMARK    8  A    between atoms: _15  and  _16
REMARK    9  A    between atoms: _19  and  _21
REMARK   10  A    between atoms: _21  and  _22
REMARK   11  A    between atoms: _21  and  _24
REMARK   12  A    between atoms: _24  and  _25
REMARK   13  A    between atoms: _25  and  _26
REMARK   14  A    between atoms: _29  and  _31
REMARK   15  A    between atoms: _31  and  _32
REMARK   16  A    between atoms: _31  and  _34
REMARK   17  A    between atoms: _34  and  _35
REMARK   18  A    between atoms: _38  and  _40
REMARK   19  A    between atoms: _40  and  _41
REMARK   20  A    between atoms: _40  and  _43
REMARK   21  A    between atoms: _43  and  _44
REMARK   22  A    between atoms: _47  and  _49
REMARK   23  A    between atoms: _49  and  _50
REMARK   24  A    between atoms: _49  and  _52
REMARK   25  A    between atoms: _52  and  _53
REMARK   26  A    between atoms: _55  and  _57
REMARK   27  A    between atoms: _57  and  _58
REMARK   28  A    between atoms: _57  and  _60
REMARK   29  A    between atoms: _60  and  _61
REMARK   30  A    between atoms: _66  and  _68
REMARK   31  A    between atoms: _68  and  _69
REMARK   32  A    between atoms: _68  and  _71
REMARK   33  A    between atoms: _71  and  _72
REMARK   34  A    between atoms: _74  and  _76
REMARK   35  A    between atoms: _76  and  _77
REMARK   36  A    between atoms: _76  and  _79
REMARK   37  A    between atoms: _79  and  _80
REMARK   38  A    between atoms: _82  and  _84
REMARK   39  A    between atoms: _84  and  _85
REMARK   40  A    between atoms: _84  and  _87
REMARK   41  A    between atoms: _87  and  _88
REMARK   42  A    between atoms: _91  and  _93
REMARK   43  A    between atoms: _93  and  _94
REMARK   44  A    between atoms: _97  and  _99
REMARK   45  A    between atoms: _99  and  _100
REMARK   46  A    between atoms: _99  and  _102
REMARK   47  A    between atoms: _102  and  _103
REMARK   48  A    between atoms: _106  and  _108
REMARK   49  A    between atoms: _108  and  _109
REMARK   50  A    between atoms: _108  and  _111
REMARK   51  A    between atoms: _111  and  _112
REMARK   52  A    between atoms: _115  and  _117
REMARK   53  A    between atoms: _117  and  _118
REMARK   54  A    between atoms: _117  and  _120
REMARK   55  A    between atoms: _120  and  _121
REMARK   56  A    between atoms: _121  and  _122
REMARK   57  A    between atoms: _122  and  _123
REMARK   58  A    between atoms: _123  and  _124
REMARK   59  A    between atoms: _128  and  _130
REMARK   60  A    between atoms: _130  and  _131
REMARK   61  A    between atoms: _130  and  _133
REMARK   62  A    between atoms: _133  and  _134
REMARK   63  A    between atoms: _137  and  _139
REMARK   64  A    between atoms: _139  and  _140
REMARK   65  A    between atoms: _139  and  _142
REMARK   66  A    between atoms: _142  and  _143
REMARK   67  A    between atoms: _143  and  _144
REMARK   68  A    between atoms: _147  and  _149
REMARK   69  A    between atoms: _149  and  _150
REMARK   70  A    between atoms: _149  and  _152
REMARK   71  A    between atoms: _152  and  _153
REMARK   72  A    between atoms: _156  and  _158
REMARK   73  A    between atoms: _158  and  _159
REMARK   74  A    between atoms: _158  and  _161
REMARK   75  A    between atoms: _161  and  _162
REMARK   76  A    between atoms: _165  and  _167
REMARK   77  A    between atoms: _167  and  _168
REMARK   78  A    between atoms: _167  and  _170
REMARK   79  A    between atoms: _173  and  _175
REMARK   80  A    between atoms: _175  and  _176
REMARK   81  A    between atoms: _175  and  _178
REMARK   82  A    between atoms: _178  and  _179
REMARK   83  A    between atoms: _182  and  _184
REMARK   84  A    between atoms: _184  and  _185
REMARK   85  A    between atoms: _184  and  _187
REMARK   86  A    between atoms: _187  and  _188
REMARK   87  A    between atoms: _191  and  _193
REMARK   88  A    between atoms: _193  and  _194
REMARK   89  A    between atoms: _196  and  _198
REMARK   90  A    between atoms: _198  and  _199
REMARK   91  A    between atoms: _198  and  _201
REMARK   92  A    between atoms: _201  and  _202
REMARK   93  A    between atoms: _205  and  _207
REMARK   94  A    between atoms: _207  and  _208
REMARK   95  A    between atoms: _210  and  _212
REMARK   96  A    between atoms: _212  and  _213
REMARK   97  A    between atoms: _212  and  _215
REMARK   98  A    between atoms: _215  and  _216
REMARK   99  A    between atoms: _216  and  _217
REMARK  100  A    between atoms: _219  and  _221
REMARK  101  A    between atoms: _221  and  _222
REMARK  102  A    between atoms: _221  and  _224
REMARK  103  A    between atoms: _224  and  _225
REMARK  104  A    between atoms: _228  and  _230
REMARK  105  A    between atoms: _230  and  _231
REMARK  106  A    between atoms: _230  and  _233
REMARK  107  A    between atoms: _233  and  _234
REMARK  108  A    between atoms: _237  and  _239
REMARK  109  A    between atoms: _239  and  _240
REMARK  110  A    between atoms: _239  and  _242
REMARK  111  A    between atoms: _242  and  _243
REMARK  112  A    between atoms: _246  and  _248
REMARK  113  A    between atoms: _248  and  _249
REMARK  114  A    between atoms: _248  and  _251
REMARK  115  A    between atoms: _251  and  _252
REMARK  116  A    between atoms: _257  and  _259
REMARK  117  A    between atoms: _259  and  _260
REMARK  118  A    between atoms: _259  and  _262
REMARK  119  A    between atoms: _262  and  _263
REMARK  120  A    between atoms: _268  and  _270
REMARK  121  A    between atoms: _270  and  _271
REMARK  122  A    between atoms: _270  and  _273
REMARK  123  A    between atoms: _273  and  _274
REMARK  124  A    between atoms: _277  and  _279
REMARK  125  A    between atoms: _279  and  _280
REMARK  126  A    between atoms: _282  and  _284
REMARK  127  A    between atoms: _284  and  _285
REMARK  128  A    between atoms: _284  and  _287
REMARK  129  A    between atoms: _287  and  _288
REMARK  130  A    between atoms: _291  and  _293
REMARK  131  A    between atoms: _293  and  _294
REMARK  132  A    between atoms: _293  and  _296
REMARK  133  A    between atoms: _296  and  _297
REMARK  134  A    between atoms: _300  and  _302
REMARK  135  A    between atoms: _302  and  _303
REMARK  136  A    between atoms: _306  and  _308
REMARK  137  A    between atoms: _308  and  _309
REMARK  138  A    between atoms: _308  and  _311
REMARK  139  A    between atoms: _311  and  _312
REMARK  140  A    between atoms: _312  and  _313
REMARK  141  A    between atoms: _313  and  _314
REMARK  142  A    between atoms: _314  and  _315
REMARK  143  A    between atoms: _319  and  _321
REMARK  144  A    between atoms: _321  and  _322
REMARK  145  A    between atoms: _321  and  _324
REMARK  146  A    between atoms: _324  and  _325
REMARK  147  A    between atoms: _327  and  _329
REMARK  148  A    between atoms: _329  and  _330
REMARK  149  A    between atoms: _332  and  _334
REMARK  150  A    between atoms: _334  and  _335
REMARK  151  A    between atoms: _334  and  _337
REMARK  152  A    between atoms: _337  and  _338
REMARK  153  A    between atoms: _341  and  _343
REMARK  154  A    between atoms: _343  and  _344
REMARK  155  A    between atoms: _343  and  _346
REMARK  156  A    between atoms: _346  and  _347
REMARK  157  A    between atoms: _350  and  _352
REMARK  158  A    between atoms: _352  and  _353
REMARK  159  A    between atoms: _355  and  _357
REMARK  160  A    between atoms: _357  and  _358
REMARK  161  A    between atoms: _357  and  _360
REMARK  162  A    between atoms: _360  and  _361
REMARK  163  A    between atoms: _367  and  _369
REMARK  164  A    between atoms: _369  and  _370
REMARK  165  A    between atoms: _372  and  _374
REMARK  166  A    between atoms: _374  and  _375
REMARK  167  A    between atoms: _374  and  _377
REMARK  168  A    between atoms: _380  and  _382
REMARK  169  A    between atoms: _382  and  _383
REMARK  170  A    between atoms: _385  and  _387
REMARK  171  A    between atoms: _387  and  _388
REMARK  172  A    between atoms: _387  and  _390
REMARK  173  A    between atoms: _390  and  _391
REMARK  174  A    between atoms: _397  and  _399
REMARK  175  A    between atoms: _399  and  _400
REMARK  176  A    between atoms: _399  and  _402
REMARK  177  A    between atoms: _402  and  _403
REMARK  178  A    between atoms: _408  and  _409
REMARK  179  A    between atoms: _411  and  _413
REMARK  180  A    between atoms: _413  and  _414
REMARK  181  A    between atoms: _413  and  _416
REMARK  182  A    between atoms: _416  and  _417
REMARK  183  A    between atoms: _419  and  _421
REMARK  184  A    between atoms: _421  and  _422
REMARK  185  A    between atoms: _425  and  _427
REMARK  186  A    between atoms: _427  and  _428
REMARK  187  A    between atoms: _427  and  _430
REMARK  188  A    between atoms: _433  and  _435
REMARK  189  A    between atoms: _435  and  _436
REMARK  190  A    between atoms: _435  and  _438
REMARK  191  A    between atoms: _438  and  _439
REMARK  192  A    between atoms: _442  and  _444
REMARK  193  A    between atoms: _444  and  _445
REMARK  194  A    between atoms: _444  and  _447
REMARK  195  A    between atoms: _447  and  _448
REMARK  196  A    between atoms: _451  and  _453
REMARK  197  A    between atoms: _453  and  _454
REMARK  198  A    between atoms: _453  and  _456
REMARK  199  A    between atoms: _456  and  _457
REMARK  200  A    between atoms: _457  and  _458
REMARK  201  A    between atoms: _458  and  _459
REMARK  202  A    between atoms: _459  and  _460
REMARK  203  A    between atoms: _464  and  _466
REMARK  204  A    between atoms: _466  and  _467
REMARK  205  A    between atoms: _466  and  _469
REMARK  206  A    between atoms: _469  and  _470
REMARK  207  A    between atoms: _475  and  _477
REMARK  208  A    between atoms: _477  and  _478
REMARK  209  A    between atoms: _480  and  _482
REMARK  210  A    between atoms: _482  and  _483
REMARK  211  A    between atoms: _482  and  _485
REMARK  212  A    between atoms: _485  and  _486
REMARK  213  A    between atoms: _489  and  _491
REMARK  214  A    between atoms: _491  and  _492
REMARK  215  A    between atoms: _491  and  _494
REMARK  216  A    between atoms: _494  and  _495
REMARK  217  A    between atoms: _495  and  _496
REMARK  218  A    between atoms: _496  and  _497
REMARK  219  A    between atoms: _497  and  _498
REMARK  220  A    between atoms: _502  and  _504
REMARK  221  A    between atoms: _504  and  _505
REMARK  222  A    between atoms: _504  and  _507
REMARK  223  A    between atoms: _510  and  _512
REMARK  224  A    between atoms: _512  and  _513
REMARK  225  A    between atoms: _512  and  _515
REMARK  226  A    between atoms: _515  and  _516
REMARK  227  A    between atoms: _516  and  _517
REMARK  228  A    between atoms: _517  and  _518
REMARK  229  A    between atoms: _518  and  _519
REMARK                            x       y       z     vdW  Elec       q    Type
REMARK                         _______ _______ _______ _____ _____    ______ ____
ROOT
ATOM      1  O   HOH     1      13.416  26.380  10.488  0.00  0.00    +0.000 OA
ENDROOT
TORSDOF 0
REMARK  Name = ../refined-set-2016/2qg0/2qg0_pocket.pdb
REMARK  229 active torsions:
REMARK  status: ('A' for Active; 'I' for Inactive)
REMARK    1  A    between atoms: _1  and  _3
REMARK    2  A    between atoms: _3  and  _4
REMARK    3  A    between atoms: _3  and  _6
REMARK    4  A    between atoms: _6  and  _7
REMARK    5  A    between atoms: _10  and  _12
REMARK    6  A    between atoms: _12  and  _13
REMARK    7  A    between atoms: _12  and  _15
REMARK    8  A    between atoms: _15  and  _16
REMARK    9  A    between atoms: _19  and  _21
REMARK   10  A    between atoms: _21  and  _22
REMARK   11  A    between atoms: _21  and  _24
REMARK   12  A    between atoms: _24  and  _25
REMARK   13  A    between atoms: _25  and  _26
REMARK   14  A    between atoms: _29  and  _31
REMARK   15  A    between atoms: _31  and  _32
REMARK   16  A    between atoms: _31  and  _34
REMARK   17  A    between atoms: _34  and  _35
REMARK   18  A    between atoms: _38  and  _40
REMARK   19  A    between atoms: _40  and  _41
REMARK   20  A    between atoms: _40  and  _43
REMARK   21  A    between atoms: _43  and  _44
REMARK   22  A    between atoms: _47  and  _49
REMARK   23  A    between atoms: _49  and  _50
REMARK   24  A    between atoms: _49  and  _52
REMARK   25  A    between atoms: _52  and  _53
REMARK   26  A    between atoms: _55  and  _57
REMARK   27  A    between atoms: _57  and  _58
REMARK   28  A    between atoms: _57  and  _60
REMARK   29  A    between atoms: _60  and  _61
REMARK   30  A    between atoms: _66  and  _68
REMARK   31  A    between atoms: _68  and  _69
REMARK   32  A    between atoms: _68  and  _71
REMARK   33  A    between atoms: _71  and  _72
REMARK   34  A    between atoms: _74  and  _76
REMARK   35  A    between atoms: _76  and  _77
REMARK   36  A    between atoms: _76  and  _79
REMARK   37  A    between atoms: _79  and  _80
REMARK   38  A    between atoms: _82  and  _84
REMARK   39  A    between atoms: _84  and  _85
REMARK   40  A    between atoms: _84  and  _87
REMARK   41  A    between atoms: _87  and  _88
REMARK   42  A    between atoms: _91  and  _93
REMARK   43  A    between atoms: _93  and  _94
REMARK   44  A    between atoms: _97  and  _99
REMARK   45  A    between atoms: _99  and  _100
REMARK   46  A    between atoms: _99  and  _102
REMARK   47  A    between atoms: _102  and  _103
REMARK   48  A    between atoms: _106  and  _108
REMARK   49  A    between atoms: _108  and  _109
REMARK   50  A    between atoms: _108  and  _111
REMARK   51  A    between atoms: _111  and  _112
REMARK   52  A    between atoms: _115  and  _117
REMARK   53  A    between atoms: _117  and  _118
REMARK   54  A    between atoms: _117  and  _120
REMARK   55  A    between atoms: _120  and  _121
REMARK   56  A    between atoms: _121  and  _122
REMARK   57  A    between atoms: _122  and  _123
REMARK   58  A    between atoms: _123  and  _124
REMARK   59  A    between atoms: _128  and  _130
REMARK   60  A    between atoms: _130  and  _131
REMARK   61  A    between atoms: _130  and  _133
REMARK   62  A    between atoms: _133  and  _134
REMARK   63  A    between atoms: _137  and  _139
REMARK   64  A    between atoms: _139  and  _140
REMARK   65  A    between atoms: _139  and  _142
REMARK   66  A    between atoms: _142  and  _143
REMARK   67  A    between atoms: _143  and  _144
REMARK   68  A    between atoms: _147  and  _149
REMARK   69  A    between atoms: _149  and  _150
REMARK   70  A    between atoms: _149  and  _152
REMARK   71  A    between atoms: _152  and  _153
REMARK   72  A    between atoms: _156  and  _158
REMARK   73  A    between atoms: _158  and  _159
REMARK   74  A    between atoms: _158  and  _161
REMARK   75  A    between atoms: _161  and  _162
REMARK   76  A    between atoms: _165  and  _167
REMARK   77  A    between atoms: _167  and  _168
REMARK   78  A    between atoms: _167  and  _170
REMARK   79  A    between atoms: _173  and  _175
REMARK   80  A    between atoms: _175  and  _176
REMARK   81  A    between atoms: _175  and  _178
REMARK   82  A    between atoms: _178  and  _179
REMARK   83  A    between atoms: _182  and  _184
REMARK   84  A    between atoms: _184  and  _185
REMARK   85  A    between atoms: _184  and  _187
REMARK   86  A    between atoms: _187  and  _188
REMARK   87  A    between atoms: _191  and  _193
REMARK   88  A    between atoms: _193  and  _194
REMARK   89  A    between atoms: _196  and  _198
REMARK   90  A    between atoms: _198  and  _199
REMARK   91  A    between atoms: _198  and  _201
REMARK   92  A    between atoms: _201  and  _202
REMARK   93  A    between atoms: _205  and  _207
REMARK   94  A    between atoms: _207  and  _208
REMARK   95  A    between atoms: _210  and  _212
REMARK   96  A    between atoms: _212  and  _213
REMARK   97  A    between atoms: _212  and  _215
REMARK   98  A    between atoms: _215  and  _216
REMARK   99  A    between atoms: _216  and  _217
REMARK  100  A    between atoms: _219  and  _221
REMARK  101  A    between atoms: _221  and  _222
REMARK  102  A    between atoms: _221  and  _224
REMARK  103  A    between atoms: _224  and  _225
REMARK  104  A    between atoms: _228  and  _230
REMARK  105  A    between atoms: _230  and  _231
REMARK  106  A    between atoms: _230  and  _233
REMARK  107  A    between atoms: _233  and  _234
REMARK  108  A    between atoms: _237  and  _239
REMARK  109  A    between atoms: _239  and  _240
REMARK  110  A    between atoms: _239  and  _242
REMARK  111  A    between atoms: _242  and  _243
REMARK  112  A    between atoms: _246  and  _248
REMARK  113  A    between atoms: _248  and  _249
REMARK  114  A    between atoms: _248  and  _251
REMARK  115  A    between atoms: _251  and  _252
REMARK  116  A    between atoms: _257  and  _259
REMARK  117  A    between atoms: _259  and  _260
REMARK  118  A    between atoms: _259  and  _262
REMARK  119  A    between atoms: _262  and  _263
REMARK  120  A    between atoms: _268  and  _270
REMARK  121  A    between atoms: _270  and  _271
REMARK  122  A    between atoms: _270  and  _273
REMARK  123  A    between atoms: _273  and  _274
REMARK  124  A    between atoms: _277  and  _279
REMARK  125  A    between atoms: _279  and  _280
REMARK  126  A    between atoms: _282  and  _284
REMARK  127  A    between atoms: _284  and  _285
REMARK  128  A    between atoms: _284  and  _287
REMARK  129  A    between atoms: _287  and  _288
REMARK  130  A    between atoms: _291  and  _293
REMARK  131  A    between atoms: _293  and  _294
REMARK  132  A    between atoms: _293  and  _296
REMARK  133  A    between atoms: _296  and  _297
REMARK  134  A    between atoms: _300  and  _302
REMARK  135  A    between atoms: _302  and  _303
REMARK  136  A    between atoms: _306  and  _308
REMARK  137  A    between atoms: _308  and  _309
REMARK  138  A    between atoms: _308  and  _311
REMARK  139  A    between atoms: _311  and  _312
REMARK  140  A    between atoms: _312  and  _313
REMARK  141  A    between atoms: _313  and  _314
REMARK  142  A    between atoms: _314  and  _315
REMARK  143  A    between atoms: _319  and  _321
REMARK  144  A    between atoms: _321  and  _322
REMARK  145  A    between atoms: _321  and  _324
REMARK  146  A    between atoms: _324  and  _325
REMARK  147  A    between atoms: _327  and  _329
REMARK  148  A    between atoms: _329  and  _330
REMARK  149  A    between atoms: _332  and  _334
REMARK  150  A    between atoms: _334  and  _335
REMARK  151  A    between atoms: _334  and  _337
REMARK  152  A    between atoms: _337  and  _338
REMARK  153  A    between atoms: _341  and  _343
REMARK  154  A    between atoms: _343  and  _344
REMARK  155  A    between atoms: _343  and  _346
REMARK  156  A    between atoms: _346  and  _347
REMARK  157  A    between atoms: _350  and  _352
REMARK  158  A    between atoms: _352  and  _353
REMARK  159  A    between atoms: _355  and  _357
REMARK  160  A    between atoms: _357  and  _358
REMARK  161  A    between atoms: _357  and  _360
REMARK  162  A    between atoms: _360  and  _361
REMARK  163  A    between atoms: _367  and  _369
REMARK  164  A    between atoms: _369  and  _370
REMARK  165  A    between atoms: _372  and  _374
REMARK  166  A    between atoms: _374  and  _375
REMARK  167  A    between atoms: _374  and  _377
REMARK  168  A    between atoms: _380  and  _382
REMARK  169  A    between atoms: _382  and  _383
REMARK  170  A    between atoms: _385  and  _387
REMARK  171  A    between atoms: _387  and  _388
REMARK  172  A    between atoms: _387  and  _390
REMARK  173  A    between atoms: _390  and  _391
REMARK  174  A    between atoms: _397  and  _399
REMARK  175  A    between atoms: _399  and  _400
REMARK  176  A    between atoms: _399  and  _402
REMARK  177  A    between atoms: _402  and  _403
REMARK  178  A    between atoms: _408  and  _409
REMARK  179  A    between atoms: _411  and  _413
REMARK  180  A    between atoms: _413  and  _414
REMARK  181  A    between atoms: _413  and  _416
REMARK  182  A    between atoms: _416  and  _417
REMARK  183  A    between atoms: _419  and  _421
REMARK  184  A    between atoms: _421  and  _422
REMARK  185  A    between atoms: _425  and  _427
REMARK  186  A    between atoms: _427  and  _428
REMARK  187  A    between atoms: _427  and  _430
REMARK  188  A    between atoms: _433  and  _435
REMARK  189  A    between atoms: _435  and  _436
REMARK  190  A    between atoms: _435  and  _438
REMARK  191  A    between atoms: _438  and  _439
REMARK  192  A    between atoms: _442  and  _444
REMARK  193  A    between atoms: _444  and  _445
REMARK  194  A    between atoms: _444  and  _447
REMARK  195  A    between atoms: _447  and  _448
REMARK  196  A    between atoms: _451  and  _453
REMARK  197  A    between atoms: _453  and  _454
REMARK  198  A    between atoms: _453  and  _456
REMARK  199  A    between atoms: _456  and  _457
REMARK  200  A    between atoms: _457  and  _458
REMARK  201  A    between atoms: _458  and  _459
REMARK  202  A    between atoms: _459  and  _460
REMARK  203  A    between atoms: _464  and  _466
REMARK  204  A    between atoms: _466  and  _467
REMARK  205  A    between atoms: _466  and  _469
REMARK  206  A    between atoms: _469  and  _470
REMARK  207  A    between atoms: _475  and  _477
REMARK  208  A    between atoms: _477  and  _478
REMARK  209  A    between atoms: _480  and  _482
REMARK  210  A    between atoms: _482  and  _483
REMARK  211  A    between atoms: _482  and  _485
REMARK  212  A    between atoms: _485  and  _486
REMARK  213  A    between atoms: _489  and  _491
REMARK  214  A    between atoms: _491  and  _492
REMARK  215  A    between atoms: _491  and  _494
REMARK  216  A    between atoms: _494  and  _495
REMARK  217  A    between atoms: _495  and  _496
REMARK  218  A    between atoms: _496  and  _497
REMARK  219  A    between atoms: _497  and  _498
REMARK  220  A    between atoms: _502  and  _504
REMARK  221  A    between atoms: _504  and  _505
REMARK  222  A    between atoms: _504  and  _507
REMARK  223  A    between atoms: _510  and  _512
REMARK  224  A    between atoms: _512  and  _513
REMARK  225  A    between atoms: _512  and  _515
REMARK  226  A    between atoms: _515  and  _516
REMARK  227  A    between atoms: _516  and  _517
REMARK  228  A    between atoms: _517  and  _518
REMARK  229  A    between atoms: _518  and  _519
REMARK                            x       y       z     vdW  Elec       q    Type
REMARK                         _______ _______ _______ _____ _____    ______ ____
ROOT
ATOM      1  O   HOH     1      25.613  21.835  10.908  0.00  0.00    +0.000 OA
ENDROOT
TORSDOF 0
REMARK  Name = ../refined-set-2016/2qg0/2qg0_pocket.pdb
REMARK  229 active torsions:
REMARK  status: ('A' for Active; 'I' for Inactive)
REMARK    1  A    between atoms: _1  and  _3
REMARK    2  A    between atoms: _3  and  _4
REMARK    3  A    between atoms: _3  and  _6
REMARK    4  A    between atoms: _6  and  _7
REMARK    5  A    between atoms: _10  and  _12
REMARK    6  A    between atoms: _12  and  _13
REMARK    7  A    between atoms: _12  and  _15
REMARK    8  A    between atoms: _15  and  _16
REMARK    9  A    between atoms: _19  and  _21
REMARK   10  A    between atoms: _21  and  _22
REMARK   11  A    between atoms: _21  and  _24
REMARK   12  A    between atoms: _24  and  _25
REMARK   13  A    between atoms: _25  and  _26
REMARK   14  A    between atoms: _29  and  _31
REMARK   15  A    between atoms: _31  and  _32
REMARK   16  A    between atoms: _31  and  _34
REMARK   17  A    between atoms: _34  and  _35
REMARK   18  A    between atoms: _38  and  _40
REMARK   19  A    between atoms: _40  and  _41
REMARK   20  A    between atoms: _40  and  _43
REMARK   21  A    between atoms: _43  and  _44
REMARK   22  A    between atoms: _47  and  _49
REMARK   23  A    between atoms: _49  and  _50
REMARK   24  A    between atoms: _49  and  _52
REMARK   25  A    between atoms: _52  and  _53
REMARK   26  A    between atoms: _55  and  _57
REMARK   27  A    between atoms: _57  and  _58
REMARK   28  A    between atoms: _57  and  _60
REMARK   29  A    between atoms: _60  and  _61
REMARK   30  A    between atoms: _66  and  _68
REMARK   31  A    between atoms: _68  and  _69
REMARK   32  A    between atoms: _68  and  _71
REMARK   33  A    between atoms: _71  and  _72
REMARK   34  A    between atoms: _74  and  _76
REMARK   35  A    between atoms: _76  and  _77
REMARK   36  A    between atoms: _76  and  _79
REMARK   37  A    between atoms: _79  and  _80
REMARK   38  A    between atoms: _82  and  _84
REMARK   39  A    between atoms: _84  and  _85
REMARK   40  A    between atoms: _84  and  _87
REMARK   41  A    between atoms: _87  and  _88
REMARK   42  A    between atoms: _91  and  _93
REMARK   43  A    between atoms: _93  and  _94
REMARK   44  A    between atoms: _97  and  _99
REMARK   45  A    between atoms: _99  and  _100
REMARK   46  A    between atoms: _99  and  _102
REMARK   47  A    between atoms: _102  and  _103
REMARK   48  A    between atoms: _106  and  _108
REMARK   49  A    between atoms: _108  and  _109
REMARK   50  A    between atoms: _108  and  _111
REMARK   51  A    between atoms: _111  and  _112
REMARK   52  A    between atoms: _115  and  _117
REMARK   53  A    between atoms: _117  and  _118
REMARK   54  A    between atoms: _117  and  _120
REMARK   55  A    between atoms: _120  and  _121
REMARK   56  A    between atoms: _121  and  _122
REMARK   57  A    between atoms: _122  and  _123
REMARK   58  A    between atoms: _123  and  _124
REMARK   59  A    between atoms: _128  and  _130
REMARK   60  A    between atoms: _130  and  _131
REMARK   61  A    between atoms: _130  and  _133
REMARK   62  A    between atoms: _133  and  _134
REMARK   63  A    between atoms: _137  and  _139
REMARK   64  A    between atoms: _139  and  _140
REMARK   65  A    between atoms: _139  and  _142
REMARK   66  A    between atoms: _142  and  _143
REMARK   67  A    between atoms: _143  and  _144
REMARK   68  A    between atoms: _147  and  _149
REMARK   69  A    between atoms: _149  and  _150
REMARK   70  A    between atoms: _149  and  _152
REMARK   71  A    between atoms: _152  and  _153
REMARK   72  A    between atoms: _156  and  _158
REMARK   73  A    between atoms: _158  and  _159
REMARK   74  A    between atoms: _158  and  _161
REMARK   75  A    between atoms: _161  and  _162
REMARK   76  A    between atoms: _165  and  _167
REMARK   77  A    between atoms: _167  and  _168
REMARK   78  A    between atoms: _167  and  _170
REMARK   79  A    between atoms: _173  and  _175
REMARK   80  A    between atoms: _175  and  _176
REMARK   81  A    between atoms: _175  and  _178
REMARK   82  A    between atoms: _178  and  _179
REMARK   83  A    between atoms: _182  and  _184
REMARK   84  A    between atoms: _184  and  _185
REMARK   85  A    between atoms: _184  and  _187
REMARK   86  A    between atoms: _187  and  _188
REMARK   87  A    between atoms: _191  and  _193
REMARK   88  A    between atoms: _193  and  _194
REMARK   89  A    between atoms: _196  and  _198
REMARK   90  A    between atoms: _198  and  _199
REMARK   91  A    between atoms: _198  and  _201
REMARK   92  A    between atoms: _201  and  _202
REMARK   93  A    between atoms: _205  and  _207
REMARK   94  A    between atoms: _207  and  _208
REMARK   95  A    between atoms: _210  and  _212
REMARK   96  A    between atoms: _212  and  _213
REMARK   97  A    between atoms: _212  and  _215
REMARK   98  A    between atoms: _215  and  _216
REMARK   99  A    between atoms: _216  and  _217
REMARK  100  A    between atoms: _219  and  _221
REMARK  101  A    between atoms: _221  and  _222
REMARK  102  A    between atoms: _221  and  _224
REMARK  103  A    between atoms: _224  and  _225
REMARK  104  A    between atoms: _228  and  _230
REMARK  105  A    between atoms: _230  and  _231
REMARK  106  A    between atoms: _230  and  _233
REMARK  107  A    between atoms: _233  and  _234
REMARK  108  A    between atoms: _237  and  _239
REMARK  109  A    between atoms: _239  and  _240
REMARK  110  A    between atoms: _239  and  _242
REMARK  111  A    between atoms: _242  and  _243
REMARK  112  A    between atoms: _246  and  _248
REMARK  113  A    between atoms: _248  and  _249
REMARK  114  A    between atoms: _248  and  _251
REMARK  115  A    between atoms: _251  and  _252
REMARK  116  A    between atoms: _257  and  _259
REMARK  117  A    between atoms: _259  and  _260
REMARK  118  A    between atoms: _259  and  _262
REMARK  119  A    between atoms: _262  and  _263
REMARK  120  A    between atoms: _268  and  _270
REMARK  121  A    between atoms: _270  and  _271
REMARK  122  A    between atoms: _270  and  _273
REMARK  123  A    between atoms: _273  and  _274
REMARK  124  A    between atoms: _277  and  _279
REMARK  125  A    between atoms: _279  and  _280
REMARK  126  A    between atoms: _282  and  _284
REMARK  127  A    between atoms: _284  and  _285
REMARK  128  A    between atoms: _284  and  _287
REMARK  129  A    between atoms: _287  and  _288
REMARK  130  A    between atoms: _291  and  _293
REMARK  131  A    between atoms: _293  and  _294
REMARK  132  A    between atoms: _293  and  _296
REMARK  133  A    between atoms: _296  and  _297
REMARK  134  A    between atoms: _300  and  _302
REMARK  135  A    between atoms: _302  and  _303
REMARK  136  A    between atoms: _306  and  _308
REMARK  137  A    between atoms: _308  and  _309
REMARK  138  A    between atoms: _308  and  _311
REMARK  139  A    between atoms: _311  and  _312
REMARK  140  A    between atoms: _312  and  _313
REMARK  141  A    between atoms: _313  and  _314
REMARK  142  A    between atoms: _314  and  _315
REMARK  143  A    between atoms: _319  and  _321
REMARK  144  A    between atoms: _321  and  _322
REMARK  145  A    between atoms: _321  and  _324
REMARK  146  A    between atoms: _324  and  _325
REMARK  147  A    between atoms: _327  and  _329
REMARK  148  A    between atoms: _329  and  _330
REMARK  149  A    between atoms: _332  and  _334
REMARK  150  A    between atoms: _334  and  _335
REMARK  151  A    between atoms: _334  and  _337
REMARK  152  A    between atoms: _337  and  _338
REMARK  153  A    between atoms: _341  and  _343
REMARK  154  A    between atoms: _343  and  _344
REMARK  155  A    between atoms: _343  and  _346
REMARK  156  A    between atoms: _346  and  _347
REMARK  157  A    between atoms: _350  and  _352
REMARK  158  A    between atoms: _352  and  _353
REMARK  159  A    between atoms: _355  and  _357
REMARK  160  A    between atoms: _357  and  _358
REMARK  161  A    between atoms: _357  and  _360
REMARK  162  A    between atoms: _360  and  _361
REMARK  163  A    between atoms: _367  and  _369
REMARK  164  A    between atoms: _369  and  _370
REMARK  165  A    between atoms: _372  and  _374
REMARK  166  A    between atoms: _374  and  _375
REMARK  167  A    between atoms: _374  and  _377
REMARK  168  A    between atoms: _380  and  _382
REMARK  169  A    between atoms: _382  and  _383
REMARK  170  A    between atoms: _385  and  _387
REMARK  171  A    between atoms: _387  and  _388
REMARK  172  A    between atoms: _387  and  _390
REMARK  173  A    between atoms: _390  and  _391
REMARK  174  A    between atoms: _397  and  _399
REMARK  175  A    between atoms: _399  and  _400
REMARK  176  A    between atoms: _399  and  _402
REMARK  177  A    between atoms: _402  and  _403
REMARK  178  A    between atoms: _408  and  _409
REMARK  179  A    between atoms: _411  and  _413
REMARK  180  A    between atoms: _413  and  _414
REMARK  181  A    between atoms: _413  and  _416
REMARK  182  A    between atoms: _416  and  _417
REMARK  183  A    between atoms: _419  and  _421
REMARK  184  A    between atoms: _421  and  _422
REMARK  185  A    between atoms: _425  and  _427
REMARK  186  A    between atoms: _427  and  _428
REMARK  187  A    between atoms: _427  and  _430
REMARK  188  A    between atoms: _433  and  _435
REMARK  189  A    between atoms: _435  and  _436
REMARK  190  A    between atoms: _435  and  _438
REMARK  191  A    between atoms: _438  and  _439
REMARK  192  A    between atoms: _442  and  _444
REMARK  193  A    between atoms: _444  and  _445
REMARK  194  A    between atoms: _444  and  _447
REMARK  195  A    between atoms: _447  and  _448
REMARK  196  A    between atoms: _451  and  _453
REMARK  197  A    between atoms: _453  and  _454
REMARK  198  A    between atoms: _453  and  _456
REMARK  199  A    between atoms: _456  and  _457
REMARK  200  A    between atoms: _457  and  _458
REMARK  201  A    between atoms: _458  and  _459
REMARK  202  A    between atoms: _459  and  _460
REMARK  203  A    between atoms: _464  and  _466
REMARK  204  A    between atoms: _466  and  _467
REMARK  205  A    between atoms: _466  and  _469
REMARK  206  A    between atoms: _469  and  _470
REMARK  207  A    between atoms: _475  and  _477
REMARK  208  A    between atoms: _477  and  _478
REMARK  209  A    between atoms: _480  and  _482
REMARK  210  A    between atoms: _482  and  _483
REMARK  211  A    between atoms: _482  and  _485
REMARK  212  A    between atoms: _485  and  _486
REMARK  213  A    between atoms: _489  and  _491
REMARK  214  A    between atoms: _491  and  _492
REMARK  215  A    between atoms: _491  and  _494
REMARK  216  A    between atoms: _494  and  _495
REMARK  217  A    between atoms: _495  and  _496
REMARK  218  A    between atoms: _496  and  _497
REMARK  219  A    between atoms: _497  and  _498
REMARK  220  A    between atoms: _502  and  _504
REMARK  221  A    between atoms: _504  and  _505
REMARK  222  A    between atoms: _504  and  _507
REMARK  223  A    between atoms: _510  and  _512
REMARK  224  A    between atoms: _512  and  _513
REMARK  225  A    between atoms: _512  and  _515
REMARK  226  A    between atoms: _515  and  _516
REMARK  227  A    between atoms: _516  and  _517
REMARK  228  A    between atoms: _517  and  _518
REMARK  229  A    between atoms: _518  and  _519
REMARK                            x       y       z     vdW  Elec       q    Type
REMARK                         _______ _______ _______ _____ _____    ______ ____
ROOT
ATOM      1  O   HOH     1      10.968  18.432  14.894  0.00  0.00    +0.000 OA
ENDROOT
TORSDOF 0
REMARK  Name = ../refined-set-2016/2qg0/2qg0_pocket.pdb
REMARK  229 active torsions:
REMARK  status: ('A' for Active; 'I' for Inactive)
REMARK    1  A    between atoms: _1  and  _3
REMARK    2  A    between atoms: _3  and  _4
REMARK    3  A    between atoms: _3  and  _6
REMARK    4  A    between atoms: _6  and  _7
REMARK    5  A    between atoms: _10  and  _12
REMARK    6  A    between atoms: _12  and  _13
REMARK    7  A    between atoms: _12  and  _15
REMARK    8  A    between atoms: _15  and  _16
REMARK    9  A    between atoms: _19  and  _21
REMARK   10  A    between atoms: _21  and  _22
REMARK   11  A    between atoms: _21  and  _24
REMARK   12  A    between atoms: _24  and  _25
REMARK   13  A    between atoms: _25  and  _26
REMARK   14  A    between atoms: _29  and  _31
REMARK   15  A    between atoms: _31  and  _32
REMARK   16  A    between atoms: _31  and  _34
REMARK   17  A    between atoms: _34  and  _35
REMARK   18  A    between atoms: _38  and  _40
REMARK   19  A    between atoms: _40  and  _41
REMARK   20  A    between atoms: _40  and  _43
REMARK   21  A    between atoms: _43  and  _44
REMARK   22  A    between atoms: _47  and  _49
REMARK   23  A    between atoms: _49  and  _50
REMARK   24  A    between atoms: _49  and  _52
REMARK   25  A    between atoms: _52  and  _53
REMARK   26  A    between atoms: _55  and  _57
REMARK   27  A    between atoms: _57  and  _58
REMARK   28  A    between atoms: _57  and  _60
REMARK   29  A    between atoms: _60  and  _61
REMARK   30  A    between atoms: _66  and  _68
REMARK   31  A    between atoms: _68  and  _69
REMARK   32  A    between atoms: _68  and  _71
REMARK   33  A    between atoms: _71  and  _72
REMARK   34  A    between atoms: _74  and  _76
REMARK   35  A    between atoms: _76  and  _77
REMARK   36  A    between atoms: _76  and  _79
REMARK   37  A    between atoms: _79  and  _80
REMARK   38  A    between atoms: _82  and  _84
REMARK   39  A    between atoms: _84  and  _85
REMARK   40  A    between atoms: _84  and  _87
REMARK   41  A    between atoms: _87  and  _88
REMARK   42  A    between atoms: _91  and  _93
REMARK   43  A    between atoms: _93  and  _94
REMARK   44  A    between atoms: _97  and  _99
REMARK   45  A    between atoms: _99  and  _100
REMARK   46  A    between atoms: _99  and  _102
REMARK   47  A    between atoms: _102  and  _103
REMARK   48  A    between atoms: _106  and  _108
REMARK   49  A    between atoms: _108  and  _109
REMARK   50  A    between atoms: _108  and  _111
REMARK   51  A    between atoms: _111  and  _112
REMARK   52  A    between atoms: _115  and  _117
REMARK   53  A    between atoms: _117  and  _118
REMARK   54  A    between atoms: _117  and  _120
REMARK   55  A    between atoms: _120  and  _121
REMARK   56  A    between atoms: _121  and  _122
REMARK   57  A    between atoms: _122  and  _123
REMARK   58  A    between atoms: _123  and  _124
REMARK   59  A    between atoms: _128  and  _130
REMARK   60  A    between atoms: _130  and  _131
REMARK   61  A    between atoms: _130  and  _133
REMARK   62  A    between atoms: _133  and  _134
REMARK   63  A    between atoms: _137  and  _139
REMARK   64  A    between atoms: _139  and  _140
REMARK   65  A    between atoms: _139  and  _142
REMARK   66  A    between atoms: _142  and  _143
REMARK   67  A    between atoms: _143  and  _144
REMARK   68  A    between atoms: _147  and  _149
REMARK   69  A    between atoms: _149  and  _150
REMARK   70  A    between atoms: _149  and  _152
REMARK   71  A    between atoms: _152  and  _153
REMARK   72  A    between atoms: _156  and  _158
REMARK   73  A    between atoms: _158  and  _159
REMARK   74  A    between atoms: _158  and  _161
REMARK   75  A    between atoms: _161  and  _162
REMARK   76  A    between atoms: _165  and  _167
REMARK   77  A    between atoms: _167  and  _168
REMARK   78  A    between atoms: _167  and  _170
REMARK   79  A    between atoms: _173  and  _175
REMARK   80  A    between atoms: _175  and  _176
REMARK   81  A    between atoms: _175  and  _178
REMARK   82  A    between atoms: _178  and  _179
REMARK   83  A    between atoms: _182  and  _184
REMARK   84  A    between atoms: _184  and  _185
REMARK   85  A    between atoms: _184  and  _187
REMARK   86  A    between atoms: _187  and  _188
REMARK   87  A    between atoms: _191  and  _193
REMARK   88  A    between atoms: _193  and  _194
REMARK   89  A    between atoms: _196  and  _198
REMARK   90  A    between atoms: _198  and  _199
REMARK   91  A    between atoms: _198  and  _201
REMARK   92  A    between atoms: _201  and  _202
REMARK   93  A    between atoms: _205  and  _207
REMARK   94  A    between atoms: _207  and  _208
REMARK   95  A    between atoms: _210  and  _212
REMARK   96  A    between atoms: _212  and  _213
REMARK   97  A    between atoms: _212  and  _215
REMARK   98  A    between atoms: _215  and  _216
REMARK   99  A    between atoms: _216  and  _217
REMARK  100  A    between atoms: _219  and  _221
REMARK  101  A    between atoms: _221  and  _222
REMARK  102  A    between atoms: _221  and  _224
REMARK  103  A    between atoms: _224  and  _225
REMARK  104  A    between atoms: _228  and  _230
REMARK  105  A    between atoms: _230  and  _231
REMARK  106  A    between atoms: _230  and  _233
REMARK  107  A    between atoms: _233  and  _234
REMARK  108  A    between atoms: _237  and  _239
REMARK  109  A    between atoms: _239  and  _240
REMARK  110  A    between atoms: _239  and  _242
REMARK  111  A    between atoms: _242  and  _243
REMARK  112  A    between atoms: _246  and  _248
REMARK  113  A    between atoms: _248  and  _249
REMARK  114  A    between atoms: _248  and  _251
REMARK  115  A    between atoms: _251  and  _252
REMARK  116  A    between atoms: _257  and  _259
REMARK  117  A    between atoms: _259  and  _260
REMARK  118  A    between atoms: _259  and  _262
REMARK  119  A    between atoms: _262  and  _263
REMARK  120  A    between atoms: _268  and  _270
REMARK  121  A    between atoms: _270  and  _271
REMARK  122  A    between atoms: _270  and  _273
REMARK  123  A    between atoms: _273  and  _274
REMARK  124  A    between atoms: _277  and  _279
REMARK  125  A    between atoms: _279  and  _280
REMARK  126  A    between atoms: _282  and  _284
REMARK  127  A    between atoms: _284  and  _285
REMARK  128  A    between atoms: _284  and  _287
REMARK  129  A    between atoms: _287  and  _288
REMARK  130  A    between atoms: _291  and  _293
REMARK  131  A    between atoms: _293  and  _294
REMARK  132  A    between atoms: _293  and  _296
REMARK  133  A    between atoms: _296  and  _297
REMARK  134  A    between atoms: _300  and  _302
REMARK  135  A    between atoms: _302  and  _303
REMARK  136  A    between atoms: _306  and  _308
REMARK  137  A    between atoms: _308  and  _309
REMARK  138  A    between atoms: _308  and  _311
REMARK  139  A    between atoms: _311  and  _312
REMARK  140  A    between atoms: _312  and  _313
REMARK  141  A    between atoms: _313  and  _314
REMARK  142  A    between atoms: _314  and  _315
REMARK  143  A    between atoms: _319  and  _321
REMARK  144  A    between atoms: _321  and  _322
REMARK  145  A    between atoms: _321  and  _324
REMARK  146  A    between atoms: _324  and  _325
REMARK  147  A    between atoms: _327  and  _329
REMARK  148  A    between atoms: _329  and  _330
REMARK  149  A    between atoms: _332  and  _334
REMARK  150  A    between atoms: _334  and  _335
REMARK  151  A    between atoms: _334  and  _337
REMARK  152  A    between atoms: _337  and  _338
REMARK  153  A    between atoms: _341  and  _343
REMARK  154  A    between atoms: _343  and  _344
REMARK  155  A    between atoms: _343  and  _346
REMARK  156  A    between atoms: _346  and  _347
REMARK  157  A    between atoms: _350  and  _352
REMARK  158  A    between atoms: _352  and  _353
REMARK  159  A    between atoms: _355  and  _357
REMARK  160  A    between atoms: _357  and  _358
REMARK  161  A    between atoms: _357  and  _360
REMARK  162  A    between atoms: _360  and  _361
REMARK  163  A    between atoms: _367  and  _369
REMARK  164  A    between atoms: _369  and  _370
REMARK  165  A    between atoms: _372  and  _374
REMARK  166  A    between atoms: _374  and  _375
REMARK  167  A    between atoms: _374  and  _377
REMARK  168  A    between atoms: _380  and  _382
REMARK  169  A    between atoms: _382  and  _383
REMARK  170  A    between atoms: _385  and  _387
REMARK  171  A    between atoms: _387  and  _388
REMARK  172  A    between atoms: _387  and  _390
REMARK  173  A    between atoms: _390  and  _391
REMARK  174  A    between atoms: _397  and  _399
REMARK  175  A    between atoms: _399  and  _400
REMARK  176  A    between atoms: _399  and  _402
REMARK  177  A    between atoms: _402  and  _403
REMARK  178  A    between atoms: _408  and  _409
REMARK  179  A    between atoms: _411  and  _413
REMARK  180  A    between atoms: _413  and  _414
REMARK  181  A    between atoms: _413  and  _416
REMARK  182  A    between atoms: _416  and  _417
REMARK  183  A    between atoms: _419  and  _421
REMARK  184  A    between atoms: _421  and  _422
REMARK  185  A    between atoms: _425  and  _427
REMARK  186  A    between atoms: _427  and  _428
REMARK  187  A    between atoms: _427  and  _430
REMARK  188  A    between atoms: _433  and  _435
REMARK  189  A    between atoms: _435  and  _436
REMARK  190  A    between atoms: _435  and  _438
REMARK  191  A    between atoms: _438  and  _439
REMARK  192  A    between atoms: _442  and  _444
REMARK  193  A    between atoms: _444  and  _445
REMARK  194  A    between atoms: _444  and  _447
REMARK  195  A    between atoms: _447  and  _448
REMARK  196  A    between atoms: _451  and  _453
REMARK  197  A    between atoms: _453  and  _454
REMARK  198  A    between atoms: _453  and  _456
REMARK  199  A    between atoms: _456  and  _457
REMARK  200  A    between atoms: _457  and  _458
REMARK  201  A    between atoms: _458  and  _459
REMARK  202  A    between atoms: _459  and  _460
REMARK  203  A    between atoms: _464  and  _466
REMARK  204  A    between atoms: _466  and  _467
REMARK  205  A    between atoms: _466  and  _469
REMARK  206  A    between atoms: _469  and  _470
REMARK  207  A    between atoms: _475  and  _477
REMARK  208  A    between atoms: _477  and  _478
REMARK  209  A    between atoms: _480  and  _482
REMARK  210  A    between atoms: _482  and  _483
REMARK  211  A    between atoms: _482  and  _485
REMARK  212  A    between atoms: _485  and  _486
REMARK  213  A    between atoms: _489  and  _491
REMARK  214  A    between atoms: _491  and  _492
REMARK  215  A    between atoms: _491  and  _494
REMARK  216  A    between atoms: _494  and  _495
REMARK  217  A    between atoms: _495  and  _496
REMARK  218  A    between atoms: _496  and  _497
REMARK  219  A    between atoms: _497  and  _498
REMARK  220  A    between atoms: _502  and  _504
REMARK  221  A    between atoms: _504  and  _505
REMARK  222  A    between atoms: _504  and  _507
REMARK  223  A    between atoms: _510  and  _512
REMARK  224  A    between atoms: _512  and  _513
REMARK  225  A    between atoms: _512  and  _515
REMARK  226  A    between atoms: _515  and  _516
REMARK  227  A    between atoms: _516  and  _517
REMARK  228  A    between atoms: _517  and  _518
REMARK  229  A    between atoms: _518  and  _519
REMARK                            x       y       z     vdW  Elec       q    Type
REMARK                         _______ _______ _______ _____ _____    ______ ____
ROOT
ATOM      1  O   HOH     1      21.147  19.157  13.853  0.00  0.00    +0.000 OA
ENDROOT
TORSDOF 0
REMARK  Name = ../refined-set-2016/2qg0/2qg0_pocket.pdb
REMARK  229 active torsions:
REMARK  status: ('A' for Active; 'I' for Inactive)
REMARK    1  A    between atoms: _1  and  _3
REMARK    2  A    between atoms: _3  and  _4
REMARK    3  A    between atoms: _3  and  _6
REMARK    4  A    between atoms: _6  and  _7
REMARK    5  A    between atoms: _10  and  _12
REMARK    6  A    between atoms: _12  and  _13
REMARK    7  A    between atoms: _12  and  _15
REMARK    8  A    between atoms: _15  and  _16
REMARK    9  A    between atoms: _19  and  _21
REMARK   10  A    between atoms: _21  and  _22
REMARK   11  A    between atoms: _21  and  _24
REMARK   12  A    between atoms: _24  and  _25
REMARK   13  A    between atoms: _25  and  _26
REMARK   14  A    between atoms: _29  and  _31
REMARK   15  A    between atoms: _31  and  _32
REMARK   16  A    between atoms: _31  and  _34
REMARK   17  A    between atoms: _34  and  _35
REMARK   18  A    between atoms: _38  and  _40
REMARK   19  A    between atoms: _40  and  _41
REMARK   20  A    between atoms: _40  and  _43
REMARK   21  A    between atoms: _43  and  _44
REMARK   22  A    between atoms: _47  and  _49
REMARK   23  A    between atoms: _49  and  _50
REMARK   24  A    between atoms: _49  and  _52
REMARK   25  A    between atoms: _52  and  _53
REMARK   26  A    between atoms: _55  and  _57
REMARK   27  A    between atoms: _57  and  _58
REMARK   28  A    between atoms: _57  and  _60
REMARK   29  A    between atoms: _60  and  _61
REMARK   30  A    between atoms: _66  and  _68
REMARK   31  A    between atoms: _68  and  _69
REMARK   32  A    between atoms: _68  and  _71
REMARK   33  A    between atoms: _71  and  _72
REMARK   34  A    between atoms: _74  and  _76
REMARK   35  A    between atoms: _76  and  _77
REMARK   36  A    between atoms: _76  and  _79
REMARK   37  A    between atoms: _79  and  _80
REMARK   38  A    between atoms: _82  and  _84
REMARK   39  A    between atoms: _84  and  _85
REMARK   40  A    between atoms: _84  and  _87
REMARK   41  A    between atoms: _87  and  _88
REMARK   42  A    between atoms: _91  and  _93
REMARK   43  A    between atoms: _93  and  _94
REMARK   44  A    between atoms: _97  and  _99
REMARK   45  A    between atoms: _99  and  _100
REMARK   46  A    between atoms: _99  and  _102
REMARK   47  A    between atoms: _102  and  _103
REMARK   48  A    between atoms: _106  and  _108
REMARK   49  A    between atoms: _108  and  _109
REMARK   50  A    between atoms: _108  and  _111
REMARK   51  A    between atoms: _111  and  _112
REMARK   52  A    between atoms: _115  and  _117
REMARK   53  A    between atoms: _117  and  _118
REMARK   54  A    between atoms: _117  and  _120
REMARK   55  A    between atoms: _120  and  _121
REMARK   56  A    between atoms: _121  and  _122
REMARK   57  A    between atoms: _122  and  _123
REMARK   58  A    between atoms: _123  and  _124
REMARK   59  A    between atoms: _128  and  _130
REMARK   60  A    between atoms: _130  and  _131
REMARK   61  A    between atoms: _130  and  _133
REMARK   62  A    between atoms: _133  and  _134
REMARK   63  A    between atoms: _137  and  _139
REMARK   64  A    between atoms: _139  and  _140
REMARK   65  A    between atoms: _139  and  _142
REMARK   66  A    between atoms: _142  and  _143
REMARK   67  A    between atoms: _143  and  _144
REMARK   68  A    between atoms: _147  and  _149
REMARK   69  A    between atoms: _149  and  _150
REMARK   70  A    between atoms: _149  and  _152
REMARK   71  A    between atoms: _152  and  _153
REMARK   72  A    between atoms: _156  and  _158
REMARK   73  A    between atoms: _158  and  _159
REMARK   74  A    between atoms: _158  and  _161
REMARK   75  A    between atoms: _161  and  _162
REMARK   76  A    between atoms: _165  and  _167
REMARK   77  A    between atoms: _167  and  _168
REMARK   78  A    between atoms: _167  and  _170
REMARK   79  A    between atoms: _173  and  _175
REMARK   80  A    between atoms: _175  and  _176
REMARK   81  A    between atoms: _175  and  _178
REMARK   82  A    between atoms: _178  and  _179
REMARK   83  A    between atoms: _182  and  _184
REMARK   84  A    between atoms: _184  and  _185
REMARK   85  A    between atoms: _184  and  _187
REMARK   86  A    between atoms: _187  and  _188
REMARK   87  A    between atoms: _191  and  _193
REMARK   88  A    between atoms: _193  and  _194
REMARK   89  A    between atoms: _196  and  _198
REMARK   90  A    between atoms: _198  and  _199
REMARK   91  A    between atoms: _198  and  _201
REMARK   92  A    between atoms: _201  and  _202
REMARK   93  A    between atoms: _205  and  _207
REMARK   94  A    between atoms: _207  and  _208
REMARK   95  A    between atoms: _210  and  _212
REMARK   96  A    between atoms: _212  and  _213
REMARK   97  A    between atoms: _212  and  _215
REMARK   98  A    between atoms: _215  and  _216
REMARK   99  A    between atoms: _216  and  _217
REMARK  100  A    between atoms: _219  and  _221
REMARK  101  A    between atoms: _221  and  _222
REMARK  102  A    between atoms: _221  and  _224
REMARK  103  A    between atoms: _224  and  _225
REMARK  104  A    between atoms: _228  and  _230
REMARK  105  A    between atoms: _230  and  _231
REMARK  106  A    between atoms: _230  and  _233
REMARK  107  A    between atoms: _233  and  _234
REMARK  108  A    between atoms: _237  and  _239
REMARK  109  A    between atoms: _239  and  _240
REMARK  110  A    between atoms: _239  and  _242
REMARK  111  A    between atoms: _242  and  _243
REMARK  112  A    between atoms: _246  and  _248
REMARK  113  A    between atoms: _248  and  _249
REMARK  114  A    between atoms: _248  and  _251
REMARK  115  A    between atoms: _251  and  _252
REMARK  116  A    between atoms: _257  and  _259
REMARK  117  A    between atoms: _259  and  _260
REMARK  118  A    between atoms: _259  and  _262
REMARK  119  A    between atoms: _262  and  _263
REMARK  120  A    between atoms: _268  and  _270
REMARK  121  A    between atoms: _270  and  _271
REMARK  122  A    between atoms: _270  and  _273
REMARK  123  A    between atoms: _273  and  _274
REMARK  124  A    between atoms: _277  and  _279
REMARK  125  A    between atoms: _279  and  _280
REMARK  126  A    between atoms: _282  and  _284
REMARK  127  A    between atoms: _284  and  _285
REMARK  128  A    between atoms: _284  and  _287
REMARK  129  A    between atoms: _287  and  _288
REMARK  130  A    between atoms: _291  and  _293
REMARK  131  A    between atoms: _293  and  _294
REMARK  132  A    between atoms: _293  and  _296
REMARK  133  A    between atoms: _296  and  _297
REMARK  134  A    between atoms: _300  and  _302
REMARK  135  A    between atoms: _302  and  _303
REMARK  136  A    between atoms: _306  and  _308
REMARK  137  A    between atoms: _308  and  _309
REMARK  138  A    between atoms: _308  and  _311
REMARK  139  A    between atoms: _311  and  _312
REMARK  140  A    between atoms: _312  and  _313
REMARK  141  A    between atoms: _313  and  _314
REMARK  142  A    between atoms: _314  and  _315
REMARK  143  A    between atoms: _319  and  _321
REMARK  144  A    between atoms: _321  and  _322
REMARK  145  A    between atoms: _321  and  _324
REMARK  146  A    between atoms: _324  and  _325
REMARK  147  A    between atoms: _327  and  _329
REMARK  148  A    between atoms: _329  and  _330
REMARK  149  A    between atoms: _332  and  _334
REMARK  150  A    between atoms: _334  and  _335
REMARK  151  A    between atoms: _334  and  _337
REMARK  152  A    between atoms: _337  and  _338
REMARK  153  A    between atoms: _341  and  _343
REMARK  154  A    between atoms: _343  and  _344
REMARK  155  A    between atoms: _343  and  _346
REMARK  156  A    between atoms: _346  and  _347
REMARK  157  A    between atoms: _350  and  _352
REMARK  158  A    between atoms: _352  and  _353
REMARK  159  A    between atoms: _355  and  _357
REMARK  160  A    between atoms: _357  and  _358
REMARK  161  A    between atoms: _357  and  _360
REMARK  162  A    between atoms: _360  and  _361
REMARK  163  A    between atoms: _367  and  _369
REMARK  164  A    between atoms: _369  and  _370
REMARK  165  A    between atoms: _372  and  _374
REMARK  166  A    between atoms: _374  and  _375
REMARK  167  A    between atoms: _374  and  _377
REMARK  168  A    between atoms: _380  and  _382
REMARK  169  A    between atoms: _382  and  _383
REMARK  170  A    between atoms: _385  and  _387
REMARK  171  A    between atoms: _387  and  _388
REMARK  172  A    between atoms: _387  and  _390
REMARK  173  A    between atoms: _390  and  _391
REMARK  174  A    between atoms: _397  and  _399
REMARK  175  A    between atoms: _399  and  _400
REMARK  176  A    between atoms: _399  and  _402
REMARK  177  A    between atoms: _402  and  _403
REMARK  178  A    between atoms: _408  and  _409
REMARK  179  A    between atoms: _411  and  _413
REMARK  180  A    between atoms: _413  and  _414
REMARK  181  A    between atoms: _413  and  _416
REMARK  182  A    between atoms: _416  and  _417
REMARK  183  A    between atoms: _419  and  _421
REMARK  184  A    between atoms: _421  and  _422
REMARK  185  A    between atoms: _425  and  _427
REMARK  186  A    between atoms: _427  and  _428
REMARK  187  A    between atoms: _427  and  _430
REMARK  188  A    between atoms: _433  and  _435
REMARK  189  A    between atoms: _435  and  _436
REMARK  190  A    between atoms: _435  and  _438
REMARK  191  A    between atoms: _438  and  _439
REMARK  192  A    between atoms: _442  and  _444
REMARK  193  A    between atoms: _444  and  _445
REMARK  194  A    between atoms: _444  and  _447
REMARK  195  A    between atoms: _447  and  _448
REMARK  196  A    between atoms: _451  and  _453
REMARK  197  A    between atoms: _453  and  _454
REMARK  198  A    between atoms: _453  and  _456
REMARK  199  A    between atoms: _456  and  _457
REMARK  200  A    between atoms: _457  and  _458
REMARK  201  A    between atoms: _458  and  _459
REMARK  202  A    between atoms: _459  and  _460
REMARK  203  A    between atoms: _464  and  _466
REMARK  204  A    between atoms: _466  and  _467
REMARK  205  A    between atoms: _466  and  _469
REMARK  206  A    between atoms: _469  and  _470
REMARK  207  A    between atoms: _475  and  _477
REMARK  208  A    between atoms: _477  and  _478
REMARK  209  A    between atoms: _480  and  _482
REMARK  210  A    between atoms: _482  and  _483
REMARK  211  A    between atoms: _482  and  _485
REMARK  212  A    between atoms: _485  and  _486
REMARK  213  A    between atoms: _489  and  _491
REMARK  214  A    between atoms: _491  and  _492
REMARK  215  A    between atoms: _491  and  _494
REMARK  216  A    between atoms: _494  and  _495
REMARK  217  A    between atoms: _495  and  _496
REMARK  218  A    between atoms: _496  and  _497
REMARK  219  A    between atoms: _497  and  _498
REMARK  220  A    between atoms: _502  and  _504
REMARK  221  A    between atoms: _504  and  _505
REMARK  222  A    between atoms: _504  and  _507
REMARK  223  A    between atoms: _510  and  _512
REMARK  224  A    between atoms: _512  and  _513
REMARK  225  A    between atoms: _512  and  _515
REMARK  226  A    between atoms: _515  and  _516
REMARK  227  A    between atoms: _516  and  _517
REMARK  228  A    between atoms: _517  and  _518
REMARK  229  A    between atoms: _518  and  _519
REMARK                            x       y       z     vdW  Elec       q    Type
REMARK                         _______ _______ _______ _____ _____    ______ ____
ROOT
ATOM      1  O   HOH     1      16.875  26.876   3.200  0.00  0.00    +0.000 OA
ENDROOT
TORSDOF 0
REMARK  Name = ../refined-set-2016/2qg0/2qg0_pocket.pdb
REMARK  229 active torsions:
REMARK  status: ('A' for Active; 'I' for Inactive)
REMARK    1  A    between atoms: _1  and  _3
REMARK    2  A    between atoms: _3  and  _4
REMARK    3  A    between atoms: _3  and  _6
REMARK    4  A    between atoms: _6  and  _7
REMARK    5  A    between atoms: _10  and  _12
REMARK    6  A    between atoms: _12  and  _13
REMARK    7  A    between atoms: _12  and  _15
REMARK    8  A    between atoms: _15  and  _16
REMARK    9  A    between atoms: _19  and  _21
REMARK   10  A    between atoms: _21  and  _22
REMARK   11  A    between atoms: _21  and  _24
REMARK   12  A    between atoms: _24  and  _25
REMARK   13  A    between atoms: _25  and  _26
REMARK   14  A    between atoms: _29  and  _31
REMARK   15  A    between atoms: _31  and  _32
REMARK   16  A    between atoms: _31  and  _34
REMARK   17  A    between atoms: _34  and  _35
REMARK   18  A    between atoms: _38  and  _40
REMARK   19  A    between atoms: _40  and  _41
REMARK   20  A    between atoms: _40  and  _43
REMARK   21  A    between atoms: _43  and  _44
REMARK   22  A    between atoms: _47  and  _49
REMARK   23  A    between atoms: _49  and  _50
REMARK   24  A    between atoms: _49  and  _52
REMARK   25  A    between atoms: _52  and  _53
REMARK   26  A    between atoms: _55  and  _57
REMARK   27  A    between atoms: _57  and  _58
REMARK   28  A    between atoms: _57  and  _60
REMARK   29  A    between atoms: _60  and  _61
REMARK   30  A    between atoms: _66  and  _68
REMARK   31  A    between atoms: _68  and  _69
REMARK   32  A    between atoms: _68  and  _71
REMARK   33  A    between atoms: _71  and  _72
REMARK   34  A    between atoms: _74  and  _76
REMARK   35  A    between atoms: _76  and  _77
REMARK   36  A    between atoms: _76  and  _79
REMARK   37  A    between atoms: _79  and  _80
REMARK   38  A    between atoms: _82  and  _84
REMARK   39  A    between atoms: _84  and  _85
REMARK   40  A    between atoms: _84  and  _87
REMARK   41  A    between atoms: _87  and  _88
REMARK   42  A    between atoms: _91  and  _93
REMARK   43  A    between atoms: _93  and  _94
REMARK   44  A    between atoms: _97  and  _99
REMARK   45  A    between atoms: _99  and  _100
REMARK   46  A    between atoms: _99  and  _102
REMARK   47  A    between atoms: _102  and  _103
REMARK   48  A    between atoms: _106  and  _108
REMARK   49  A    between atoms: _108  and  _109
REMARK   50  A    between atoms: _108  and  _111
REMARK   51  A    between atoms: _111  and  _112
REMARK   52  A    between atoms: _115  and  _117
REMARK   53  A    between atoms: _117  and  _118
REMARK   54  A    between atoms: _117  and  _120
REMARK   55  A    between atoms: _120  and  _121
REMARK   56  A    between atoms: _121  and  _122
REMARK   57  A    between atoms: _122  and  _123
REMARK   58  A    between atoms: _123  and  _124
REMARK   59  A    between atoms: _128  and  _130
REMARK   60  A    between atoms: _130  and  _131
REMARK   61  A    between atoms: _130  and  _133
REMARK   62  A    between atoms: _133  and  _134
REMARK   63  A    between atoms: _137  and  _139
REMARK   64  A    between atoms: _139  and  _140
REMARK   65  A    between atoms: _139  and  _142
REMARK   66  A    between atoms: _142  and  _143
REMARK   67  A    between atoms: _143  and  _144
REMARK   68  A    between atoms: _147  and  _149
REMARK   69  A    between atoms: _149  and  _150
REMARK   70  A    between atoms: _149  and  _152
REMARK   71  A    between atoms: _152  and  _153
REMARK   72  A    between atoms: _156  and  _158
REMARK   73  A    between atoms: _158  and  _159
REMARK   74  A    between atoms: _158  and  _161
REMARK   75  A    between atoms: _161  and  _162
REMARK   76  A    between atoms: _165  and  _167
REMARK   77  A    between atoms: _167  and  _168
REMARK   78  A    between atoms: _167  and  _170
REMARK   79  A    between atoms: _173  and  _175
REMARK   80  A    between atoms: _175  and  _176
REMARK   81  A    between atoms: _175  and  _178
REMARK   82  A    between atoms: _178  and  _179
REMARK   83  A    between atoms: _182  and  _184
REMARK   84  A    between atoms: _184  and  _185
REMARK   85  A    between atoms: _184  and  _187
REMARK   86  A    between atoms: _187  and  _188
REMARK   87  A    between atoms: _191  and  _193
REMARK   88  A    between atoms: _193  and  _194
REMARK   89  A    between atoms: _196  and  _198
REMARK   90  A    between atoms: _198  and  _199
REMARK   91  A    between atoms: _198  and  _201
REMARK   92  A    between atoms: _201  and  _202
REMARK   93  A    between atoms: _205  and  _207
REMARK   94  A    between atoms: _207  and  _208
REMARK   95  A    between atoms: _210  and  _212
REMARK   96  A    between atoms: _212  and  _213
REMARK   97  A    between atoms: _212  and  _215
REMARK   98  A    between atoms: _215  and  _216
REMARK   99  A    between atoms: _216  and  _217
REMARK  100  A    between atoms: _219  and  _221
REMARK  101  A    between atoms: _221  and  _222
REMARK  102  A    between atoms: _221  and  _224
REMARK  103  A    between atoms: _224  and  _225
REMARK  104  A    between atoms: _228  and  _230
REMARK  105  A    between atoms: _230  and  _231
REMARK  106  A    between atoms: _230  and  _233
REMARK  107  A    between atoms: _233  and  _234
REMARK  108  A    between atoms: _237  and  _239
REMARK  109  A    between atoms: _239  and  _240
REMARK  110  A    between atoms: _239  and  _242
REMARK  111  A    between atoms: _242  and  _243
REMARK  112  A    between atoms: _246  and  _248
REMARK  113  A    between atoms: _248  and  _249
REMARK  114  A    between atoms: _248  and  _251
REMARK  115  A    between atoms: _251  and  _252
REMARK  116  A    between atoms: _257  and  _259
REMARK  117  A    between atoms: _259  and  _260
REMARK  118  A    between atoms: _259  and  _262
REMARK  119  A    between atoms: _262  and  _263
REMARK  120  A    between atoms: _268  and  _270
REMARK  121  A    between atoms: _270  and  _271
REMARK  122  A    between atoms: _270  and  _273
REMARK  123  A    between atoms: _273  and  _274
REMARK  124  A    between atoms: _277  and  _279
REMARK  125  A    between atoms: _279  and  _280
REMARK  126  A    between atoms: _282  and  _284
REMARK  127  A    between atoms: _284  and  _285
REMARK  128  A    between atoms: _284  and  _287
REMARK  129  A    between atoms: _287  and  _288
REMARK  130  A    between atoms: _291  and  _293
REMARK  131  A    between atoms: _293  and  _294
REMARK  132  A    between atoms: _293  and  _296
REMARK  133  A    between atoms: _296  and  _297
REMARK  134  A    between atoms: _300  and  _302
REMARK  135  A    between atoms: _302  and  _303
REMARK  136  A    between atoms: _306  and  _308
REMARK  137  A    between atoms: _308  and  _309
REMARK  138  A    between atoms: _308  and  _311
REMARK  139  A    between atoms: _311  and  _312
REMARK  140  A    between atoms: _312  and  _313
REMARK  141  A    between atoms: _313  and  _314
REMARK  142  A    between atoms: _314  and  _315
REMARK  143  A    between atoms: _319  and  _321
REMARK  144  A    between atoms: _321  and  _322
REMARK  145  A    between atoms: _321  and  _324
REMARK  146  A    between atoms: _324  and  _325
REMARK  147  A    between atoms: _327  and  _329
REMARK  148  A    between atoms: _329  and  _330
REMARK  149  A    between atoms: _332  and  _334
REMARK  150  A    between atoms: _334  and  _335
REMARK  151  A    between atoms: _334  and  _337
REMARK  152  A    between atoms: _337  and  _338
REMARK  153  A    between atoms: _341  and  _343
REMARK  154  A    between atoms: _343  and  _344
REMARK  155  A    between atoms: _343  and  _346
REMARK  156  A    between atoms: _346  and  _347
REMARK  157  A    between atoms: _350  and  _352
REMARK  158  A    between atoms: _352  and  _353
REMARK  159  A    between atoms: _355  and  _357
REMARK  160  A    between atoms: _357  and  _358
REMARK  161  A    between atoms: _357  and  _360
REMARK  162  A    between atoms: _360  and  _361
REMARK  163  A    between atoms: _367  and  _369
REMARK  164  A    between atoms: _369  and  _370
REMARK  165  A    between atoms: _372  and  _374
REMARK  166  A    between atoms: _374  and  _375
REMARK  167  A    between atoms: _374  and  _377
REMARK  168  A    between atoms: _380  and  _382
REMARK  169  A    between atoms: _382  and  _383
REMARK  170  A    between atoms: _385  and  _387
REMARK  171  A    between atoms: _387  and  _388
REMARK  172  A    between atoms: _387  and  _390
REMARK  173  A    between atoms: _390  and  _391
REMARK  174  A    between atoms: _397  and  _399
REMARK  175  A    between atoms: _399  and  _400
REMARK  176  A    between atoms: _399  and  _402
REMARK  177  A    between atoms: _402  and  _403
REMARK  178  A    between atoms: _408  and  _409
REMARK  179  A    between atoms: _411  and  _413
REMARK  180  A    between atoms: _413  and  _414
REMARK  181  A    between atoms: _413  and  _416
REMARK  182  A    between atoms: _416  and  _417
REMARK  183  A    between atoms: _419  and  _421
REMARK  184  A    between atoms: _421  and  _422
REMARK  185  A    between atoms: _425  and  _427
REMARK  186  A    between atoms: _427  and  _428
REMARK  187  A    between atoms: _427  and  _430
REMARK  188  A    between atoms: _433  and  _435
REMARK  189  A    between atoms: _435  and  _436
REMARK  190  A    between atoms: _435  and  _438
REMARK  191  A    between atoms: _438  and  _439
REMARK  192  A    between atoms: _442  and  _444
REMARK  193  A    between atoms: _444  and  _445
REMARK  194  A    between atoms: _444  and  _447
REMARK  195  A    between atoms: _447  and  _448
REMARK  196  A    between atoms: _451  and  _453
REMARK  197  A    between atoms: _453  and  _454
REMARK  198  A    between atoms: _453  and  _456
REMARK  199  A    between atoms: _456  and  _457
REMARK  200  A    between atoms: _457  and  _458
REMARK  201  A    between atoms: _458  and  _459
REMARK  202  A    between atoms: _459  and  _460
REMARK  203  A    between atoms: _464  and  _466
REMARK  204  A    between atoms: _466  and  _467
REMARK  205  A    between atoms: _466  and  _469
REMARK  206  A    between atoms: _469  and  _470
REMARK  207  A    between atoms: _475  and  _477
REMARK  208  A    between atoms: _477  and  _478
REMARK  209  A    between atoms: _480  and  _482
REMARK  210  A    between atoms: _482  and  _483
REMARK  211  A    between atoms: _482  and  _485
REMARK  212  A    between atoms: _485  and  _486
REMARK  213  A    between atoms: _489  and  _491
REMARK  214  A    between atoms: _491  and  _492
REMARK  215  A    between atoms: _491  and  _494
REMARK  216  A    between atoms: _494  and  _495
REMARK  217  A    between atoms: _495  and  _496
REMARK  218  A    between atoms: _496  and  _497
REMARK  219  A    between atoms: _497  and  _498
REMARK  220  A    between atoms: _502  and  _504
REMARK  221  A    between atoms: _504  and  _505
REMARK  222  A    between atoms: _504  and  _507
REMARK  223  A    between atoms: _510  and  _512
REMARK  224  A    between atoms: _512  and  _513
REMARK  225  A    between atoms: _512  and  _515
REMARK  226  A    between atoms: _515  and  _516
REMARK  227  A    between atoms: _516  and  _517
REMARK  228  A    between atoms: _517  and  _518
REMARK  229  A    between atoms: _518  and  _519
REMARK                            x       y       z     vdW  Elec       q    Type
REMARK                         _______ _______ _______ _____ _____    ______ ____
ROOT
ATOM      1  O   HOH     1      25.953  20.904  21.862  0.00  0.00    +0.000 OA
ENDROOT
TORSDOF 0
REMARK  Name = ../refined-set-2016/2qg0/2qg0_pocket.pdb
REMARK  229 active torsions:
REMARK  status: ('A' for Active; 'I' for Inactive)
REMARK    1  A    between atoms: _1  and  _3
REMARK    2  A    between atoms: _3  and  _4
REMARK    3  A    between atoms: _3  and  _6
REMARK    4  A    between atoms: _6  and  _7
REMARK    5  A    between atoms: _10  and  _12
REMARK    6  A    between atoms: _12  and  _13
REMARK    7  A    between atoms: _12  and  _15
REMARK    8  A    between atoms: _15  and  _16
REMARK    9  A    between atoms: _19  and  _21
REMARK   10  A    between atoms: _21  and  _22
REMARK   11  A    between atoms: _21  and  _24
REMARK   12  A    between atoms: _24  and  _25
REMARK   13  A    between atoms: _25  and  _26
REMARK   14  A    between atoms: _29  and  _31
REMARK   15  A    between atoms: _31  and  _32
REMARK   16  A    between atoms: _31  and  _34
REMARK   17  A    between atoms: _34  and  _35
REMARK   18  A    between atoms: _38  and  _40
REMARK   19  A    between atoms: _40  and  _41
REMARK   20  A    between atoms: _40  and  _43
REMARK   21  A    between atoms: _43  and  _44
REMARK   22  A    between atoms: _47  and  _49
REMARK   23  A    between atoms: _49  and  _50
REMARK   24  A    between atoms: _49  and  _52
REMARK   25  A    between atoms: _52  and  _53
REMARK   26  A    between atoms: _55  and  _57
REMARK   27  A    between atoms: _57  and  _58
REMARK   28  A    between atoms: _57  and  _60
REMARK   29  A    between atoms: _60  and  _61
REMARK   30  A    between atoms: _66  and  _68
REMARK   31  A    between atoms: _68  and  _69
REMARK   32  A    between atoms: _68  and  _71
REMARK   33  A    between atoms: _71  and  _72
REMARK   34  A    between atoms: _74  and  _76
REMARK   35  A    between atoms: _76  and  _77
REMARK   36  A    between atoms: _76  and  _79
REMARK   37  A    between atoms: _79  and  _80
REMARK   38  A    between atoms: _82  and  _84
REMARK   39  A    between atoms: _84  and  _85
REMARK   40  A    between atoms: _84  and  _87
REMARK   41  A    between atoms: _87  and  _88
REMARK   42  A    between atoms: _91  and  _93
REMARK   43  A    between atoms: _93  and  _94
REMARK   44  A    between atoms: _97  and  _99
REMARK   45  A    between atoms: _99  and  _100
REMARK   46  A    between atoms: _99  and  _102
REMARK   47  A    between atoms: _102  and  _103
REMARK   48  A    between atoms: _106  and  _108
REMARK   49  A    between atoms: _108  and  _109
REMARK   50  A    between atoms: _108  and  _111
REMARK   51  A    between atoms: _111  and  _112
REMARK   52  A    between atoms: _115  and  _117
REMARK   53  A    between atoms: _117  and  _118
REMARK   54  A    between atoms: _117  and  _120
REMARK   55  A    between atoms: _120  and  _121
REMARK   56  A    between atoms: _121  and  _122
REMARK   57  A    between atoms: _122  and  _123
REMARK   58  A    between atoms: _123  and  _124
REMARK   59  A    between atoms: _128  and  _130
REMARK   60  A    between atoms: _130  and  _131
REMARK   61  A    between atoms: _130  and  _133
REMARK   62  A    between atoms: _133  and  _134
REMARK   63  A    between atoms: _137  and  _139
REMARK   64  A    between atoms: _139  and  _140
REMARK   65  A    between atoms: _139  and  _142
REMARK   66  A    between atoms: _142  and  _143
REMARK   67  A    between atoms: _143  and  _144
REMARK   68  A    between atoms: _147  and  _149
REMARK   69  A    between atoms: _149  and  _150
REMARK   70  A    between atoms: _149  and  _152
REMARK   71  A    between atoms: _152  and  _153
REMARK   72  A    between atoms: _156  and  _158
REMARK   73  A    between atoms: _158  and  _159
REMARK   74  A    between atoms: _158  and  _161
REMARK   75  A    between atoms: _161  and  _162
REMARK   76  A    between atoms: _165  and  _167
REMARK   77  A    between atoms: _167  and  _168
REMARK   78  A    between atoms: _167  and  _170
REMARK   79  A    between atoms: _173  and  _175
REMARK   80  A    between atoms: _175  and  _176
REMARK   81  A    between atoms: _175  and  _178
REMARK   82  A    between atoms: _178  and  _179
REMARK   83  A    between atoms: _182  and  _184
REMARK   84  A    between atoms: _184  and  _185
REMARK   85  A    between atoms: _184  and  _187
REMARK   86  A    between atoms: _187  and  _188
REMARK   87  A    between atoms: _191  and  _193
REMARK   88  A    between atoms: _193  and  _194
REMARK   89  A    between atoms: _196  and  _198
REMARK   90  A    between atoms: _198  and  _199
REMARK   91  A    between atoms: _198  and  _201
REMARK   92  A    between atoms: _201  and  _202
REMARK   93  A    between atoms: _205  and  _207
REMARK   94  A    between atoms: _207  and  _208
REMARK   95  A    between atoms: _210  and  _212
REMARK   96  A    between atoms: _212  and  _213
REMARK   97  A    between atoms: _212  and  _215
REMARK   98  A    between atoms: _215  and  _216
REMARK   99  A    between atoms: _216  and  _217
REMARK  100  A    between atoms: _219  and  _221
REMARK  101  A    between atoms: _221  and  _222
REMARK  102  A    between atoms: _221  and  _224
REMARK  103  A    between atoms: _224  and  _225
REMARK  104  A    between atoms: _228  and  _230
REMARK  105  A    between atoms: _230  and  _231
REMARK  106  A    between atoms: _230  and  _233
REMARK  107  A    between atoms: _233  and  _234
REMARK  108  A    between atoms: _237  and  _239
REMARK  109  A    between atoms: _239  and  _240
REMARK  110  A    between atoms: _239  and  _242
REMARK  111  A    between atoms: _242  and  _243
REMARK  112  A    between atoms: _246  and  _248
REMARK  113  A    between atoms: _248  and  _249
REMARK  114  A    between atoms: _248  and  _251
REMARK  115  A    between atoms: _251  and  _252
REMARK  116  A    between atoms: _257  and  _259
REMARK  117  A    between atoms: _259  and  _260
REMARK  118  A    between atoms: _259  and  _262
REMARK  119  A    between atoms: _262  and  _263
REMARK  120  A    between atoms: _268  and  _270
REMARK  121  A    between atoms: _270  and  _271
REMARK  122  A    between atoms: _270  and  _273
REMARK  123  A    between atoms: _273  and  _274
REMARK  124  A    between atoms: _277  and  _279
REMARK  125  A    between atoms: _279  and  _280
REMARK  126  A    between atoms: _282  and  _284
REMARK  127  A    between atoms: _284  and  _285
REMARK  128  A    between atoms: _284  and  _287
REMARK  129  A    between atoms: _287  and  _288
REMARK  130  A    between atoms: _291  and  _293
REMARK  131  A    between atoms: _293  and  _294
REMARK  132  A    between atoms: _293  and  _296
REMARK  133  A    between atoms: _296  and  _297
REMARK  134  A    between atoms: _300  and  _302
REMARK  135  A    between atoms: _302  and  _303
REMARK  136  A    between atoms: _306  and  _308
REMARK  137  A    between atoms: _308  and  _309
REMARK  138  A    between atoms: _308  and  _311
REMARK  139  A    between atoms: _311  and  _312
REMARK  140  A    between atoms: _312  and  _313
REMARK  141  A    between atoms: _313  and  _314
REMARK  142  A    between atoms: _314  and  _315
REMARK  143  A    between atoms: _319  and  _321
REMARK  144  A    between atoms: _321  and  _322
REMARK  145  A    between atoms: _321  and  _324
REMARK  146  A    between atoms: _324  and  _325
REMARK  147  A    between atoms: _327  and  _329
REMARK  148  A    between atoms: _329  and  _330
REMARK  149  A    between atoms: _332  and  _334
REMARK  150  A    between atoms: _334  and  _335
REMARK  151  A    between atoms: _334  and  _337
REMARK  152  A    between atoms: _337  and  _338
REMARK  153  A    between atoms: _341  and  _343
REMARK  154  A    between atoms: _343  and  _344
REMARK  155  A    between atoms: _343  and  _346
REMARK  156  A    between atoms: _346  and  _347
REMARK  157  A    between atoms: _350  and  _352
REMARK  158  A    between atoms: _352  and  _353
REMARK  159  A    between atoms: _355  and  _357
REMARK  160  A    between atoms: _357  and  _358
REMARK  161  A    between atoms: _357  and  _360
REMARK  162  A    between atoms: _360  and  _361
REMARK  163  A    between atoms: _367  and  _369
REMARK  164  A    between atoms: _369  and  _370
REMARK  165  A    between atoms: _372  and  _374
REMARK  166  A    between atoms: _374  and  _375
REMARK  167  A    between atoms: _374  and  _377
REMARK  168  A    between atoms: _380  and  _382
REMARK  169  A    between atoms: _382  and  _383
REMARK  170  A    between atoms: _385  and  _387
REMARK  171  A    between atoms: _387  and  _388
REMARK  172  A    between atoms: _387  and  _390
REMARK  173  A    between atoms: _390  and  _391
REMARK  174  A    between atoms: _397  and  _399
REMARK  175  A    between atoms: _399  and  _400
REMARK  176  A    between atoms: _399  and  _402
REMARK  177  A    between atoms: _402  and  _403
REMARK  178  A    between atoms: _408  and  _409
REMARK  179  A    between atoms: _411  and  _413
REMARK  180  A    between atoms: _413  and  _414
REMARK  181  A    between atoms: _413  and  _416
REMARK  182  A    between atoms: _416  and  _417
REMARK  183  A    between atoms: _419  and  _421
REMARK  184  A    between atoms: _421  and  _422
REMARK  185  A    between atoms: _425  and  _427
REMARK  186  A    between atoms: _427  and  _428
REMARK  187  A    between atoms: _427  and  _430
REMARK  188  A    between atoms: _433  and  _435
REMARK  189  A    between atoms: _435  and  _436
REMARK  190  A    between atoms: _435  and  _438
REMARK  191  A    between atoms: _438  and  _439
REMARK  192  A    between atoms: _442  and  _444
REMARK  193  A    between atoms: _444  and  _445
REMARK  194  A    between atoms: _444  and  _447
REMARK  195  A    between atoms: _447  and  _448
REMARK  196  A    between atoms: _451  and  _453
REMARK  197  A    between atoms: _453  and  _454
REMARK  198  A    between atoms: _453  and  _456
REMARK  199  A    between atoms: _456  and  _457
REMARK  200  A    between atoms: _457  and  _458
REMARK  201  A    between atoms: _458  and  _459
REMARK  202  A    between atoms: _459  and  _460
REMARK  203  A    between atoms: _464  and  _466
REMARK  204  A    between atoms: _466  and  _467
REMARK  205  A    between atoms: _466  and  _469
REMARK  206  A    between atoms: _469  and  _470
REMARK  207  A    between atoms: _475  and  _477
REMARK  208  A    between atoms: _477  and  _478
REMARK  209  A    between atoms: _480  and  _482
REMARK  210  A    between atoms: _482  and  _483
REMARK  211  A    between atoms: _482  and  _485
REMARK  212  A    between atoms: _485  and  _486
REMARK  213  A    between atoms: _489  and  _491
REMARK  214  A    between atoms: _491  and  _492
REMARK  215  A    between atoms: _491  and  _494
REMARK  216  A    between atoms: _494  and  _495
REMARK  217  A    between atoms: _495  and  _496
REMARK  218  A    between atoms: _496  and  _497
REMARK  219  A    between atoms: _497  and  _498
REMARK  220  A    between atoms: _502  and  _504
REMARK  221  A    between atoms: _504  and  _505
REMARK  222  A    between atoms: _504  and  _507
REMARK  223  A    between atoms: _510  and  _512
REMARK  224  A    between atoms: _512  and  _513
REMARK  225  A    between atoms: _512  and  _515
REMARK  226  A    between atoms: _515  and  _516
REMARK  227  A    between atoms: _516  and  _517
REMARK  228  A    between atoms: _517  and  _518
REMARK  229  A    between atoms: _518  and  _519
REMARK                            x       y       z     vdW  Elec       q    Type
REMARK                         _______ _______ _______ _____ _____    ______ ____
ROOT
ATOM      1  O   HOH     1      22.742  18.765  17.004  0.00  0.00    +0.000 OA
ENDROOT
TORSDOF 0
REMARK  Name = ../refined-set-2016/2qg0/2qg0_pocket.pdb
REMARK  229 active torsions:
REMARK  status: ('A' for Active; 'I' for Inactive)
REMARK    1  A    between atoms: _1  and  _3
REMARK    2  A    between atoms: _3  and  _4
REMARK    3  A    between atoms: _3  and  _6
REMARK    4  A    between atoms: _6  and  _7
REMARK    5  A    between atoms: _10  and  _12
REMARK    6  A    between atoms: _12  and  _13
REMARK    7  A    between atoms: _12  and  _15
REMARK    8  A    between atoms: _15  and  _16
REMARK    9  A    between atoms: _19  and  _21
REMARK   10  A    between atoms: _21  and  _22
REMARK   11  A    between atoms: _21  and  _24
REMARK   12  A    between atoms: _24  and  _25
REMARK   13  A    between atoms: _25  and  _26
REMARK   14  A    between atoms: _29  and  _31
REMARK   15  A    between atoms: _31  and  _32
REMARK   16  A    between atoms: _31  and  _34
REMARK   17  A    between atoms: _34  and  _35
REMARK   18  A    between atoms: _38  and  _40
REMARK   19  A    between atoms: _40  and  _41
REMARK   20  A    between atoms: _40  and  _43
REMARK   21  A    between atoms: _43  and  _44
REMARK   22  A    between atoms: _47  and  _49
REMARK   23  A    between atoms: _49  and  _50
REMARK   24  A    between atoms: _49  and  _52
REMARK   25  A    between atoms: _52  and  _53
REMARK   26  A    between atoms: _55  and  _57
REMARK   27  A    between atoms: _57  and  _58
REMARK   28  A    between atoms: _57  and  _60
REMARK   29  A    between atoms: _60  and  _61
REMARK   30  A    between atoms: _66  and  _68
REMARK   31  A    between atoms: _68  and  _69
REMARK   32  A    between atoms: _68  and  _71
REMARK   33  A    between atoms: _71  and  _72
REMARK   34  A    between atoms: _74  and  _76
REMARK   35  A    between atoms: _76  and  _77
REMARK   36  A    between atoms: _76  and  _79
REMARK   37  A    between atoms: _79  and  _80
REMARK   38  A    between atoms: _82  and  _84
REMARK   39  A    between atoms: _84  and  _85
REMARK   40  A    between atoms: _84  and  _87
REMARK   41  A    between atoms: _87  and  _88
REMARK   42  A    between atoms: _91  and  _93
REMARK   43  A    between atoms: _93  and  _94
REMARK   44  A    between atoms: _97  and  _99
REMARK   45  A    between atoms: _99  and  _100
REMARK   46  A    between atoms: _99  and  _102
REMARK   47  A    between atoms: _102  and  _103
REMARK   48  A    between atoms: _106  and  _108
REMARK   49  A    between atoms: _108  and  _109
REMARK   50  A    between atoms: _108  and  _111
REMARK   51  A    between atoms: _111  and  _112
REMARK   52  A    between atoms: _115  and  _117
REMARK   53  A    between atoms: _117  and  _118
REMARK   54  A    between atoms: _117  and  _120
REMARK   55  A    between atoms: _120  and  _121
REMARK   56  A    between atoms: _121  and  _122
REMARK   57  A    between atoms: _122  and  _123
REMARK   58  A    between atoms: _123  and  _124
REMARK   59  A    between atoms: _128  and  _130
REMARK   60  A    between atoms: _130  and  _131
REMARK   61  A    between atoms: _130  and  _133
REMARK   62  A    between atoms: _133  and  _134
REMARK   63  A    between atoms: _137  and  _139
REMARK   64  A    between atoms: _139  and  _140
REMARK   65  A    between atoms: _139  and  _142
REMARK   66  A    between atoms: _142  and  _143
REMARK   67  A    between atoms: _143  and  _144
REMARK   68  A    between atoms: _147  and  _149
REMARK   69  A    between atoms: _149  and  _150
REMARK   70  A    between atoms: _149  and  _152
REMARK   71  A    between atoms: _152  and  _153
REMARK   72  A    between atoms: _156  and  _158
REMARK   73  A    between atoms: _158  and  _159
REMARK   74  A    between atoms: _158  and  _161
REMARK   75  A    between atoms: _161  and  _162
REMARK   76  A    between atoms: _165  and  _167
REMARK   77  A    between atoms: _167  and  _168
REMARK   78  A    between atoms: _167  and  _170
REMARK   79  A    between atoms: _173  and  _175
REMARK   80  A    between atoms: _175  and  _176
REMARK   81  A    between atoms: _175  and  _178
REMARK   82  A    between atoms: _178  and  _179
REMARK   83  A    between atoms: _182  and  _184
REMARK   84  A    between atoms: _184  and  _185
REMARK   85  A    between atoms: _184  and  _187
REMARK   86  A    between atoms: _187  and  _188
REMARK   87  A    between atoms: _191  and  _193
REMARK   88  A    between atoms: _193  and  _194
REMARK   89  A    between atoms: _196  and  _198
REMARK   90  A    between atoms: _198  and  _199
REMARK   91  A    between atoms: _198  and  _201
REMARK   92  A    between atoms: _201  and  _202
REMARK   93  A    between atoms: _205  and  _207
REMARK   94  A    between atoms: _207  and  _208
REMARK   95  A    between atoms: _210  and  _212
REMARK   96  A    between atoms: _212  and  _213
REMARK   97  A    between atoms: _212  and  _215
REMARK   98  A    between atoms: _215  and  _216
REMARK   99  A    between atoms: _216  and  _217
REMARK  100  A    between atoms: _219  and  _221
REMARK  101  A    between atoms: _221  and  _222
REMARK  102  A    between atoms: _221  and  _224
REMARK  103  A    between atoms: _224  and  _225
REMARK  104  A    between atoms: _228  and  _230
REMARK  105  A    between atoms: _230  and  _231
REMARK  106  A    between atoms: _230  and  _233
REMARK  107  A    between atoms: _233  and  _234
REMARK  108  A    between atoms: _237  and  _239
REMARK  109  A    between atoms: _239  and  _240
REMARK  110  A    between atoms: _239  and  _242
REMARK  111  A    between atoms: _242  and  _243
REMARK  112  A    between atoms: _246  and  _248
REMARK  113  A    between atoms: _248  and  _249
REMARK  114  A    between atoms: _248  and  _251
REMARK  115  A    between atoms: _251  and  _252
REMARK  116  A    between atoms: _257  and  _259
REMARK  117  A    between atoms: _259  and  _260
REMARK  118  A    between atoms: _259  and  _262
REMARK  119  A    between atoms: _262  and  _263
REMARK  120  A    between atoms: _268  and  _270
REMARK  121  A    between atoms: _270  and  _271
REMARK  122  A    between atoms: _270  and  _273
REMARK  123  A    between atoms: _273  and  _274
REMARK  124  A    between atoms: _277  and  _279
REMARK  125  A    between atoms: _279  and  _280
REMARK  126  A    between atoms: _282  and  _284
REMARK  127  A    between atoms: _284  and  _285
REMARK  128  A    between atoms: _284  and  _287
REMARK  129  A    between atoms: _287  and  _288
REMARK  130  A    between atoms: _291  and  _293
REMARK  131  A    between atoms: _293  and  _294
REMARK  132  A    between atoms: _293  and  _296
REMARK  133  A    between atoms: _296  and  _297
REMARK  134  A    between atoms: _300  and  _302
REMARK  135  A    between atoms: _302  and  _303
REMARK  136  A    between atoms: _306  and  _308
REMARK  137  A    between atoms: _308  and  _309
REMARK  138  A    between atoms: _308  and  _311
REMARK  139  A    between atoms: _311  and  _312
REMARK  140  A    between atoms: _312  and  _313
REMARK  141  A    between atoms: _313  and  _314
REMARK  142  A    between atoms: _314  and  _315
REMARK  143  A    between atoms: _319  and  _321
REMARK  144  A    between atoms: _321  and  _322
REMARK  145  A    between atoms: _321  and  _324
REMARK  146  A    between atoms: _324  and  _325
REMARK  147  A    between atoms: _327  and  _329
REMARK  148  A    between atoms: _329  and  _330
REMARK  149  A    between atoms: _332  and  _334
REMARK  150  A    between atoms: _334  and  _335
REMARK  151  A    between atoms: _334  and  _337
REMARK  152  A    between atoms: _337  and  _338
REMARK  153  A    between atoms: _341  and  _343
REMARK  154  A    between atoms: _343  and  _344
REMARK  155  A    between atoms: _343  and  _346
REMARK  156  A    between atoms: _346  and  _347
REMARK  157  A    between atoms: _350  and  _352
REMARK  158  A    between atoms: _352  and  _353
REMARK  159  A    between atoms: _355  and  _357
REMARK  160  A    between atoms: _357  and  _358
REMARK  161  A    between atoms: _357  and  _360
REMARK  162  A    between atoms: _360  and  _361
REMARK  163  A    between atoms: _367  and  _369
REMARK  164  A    between atoms: _369  and  _370
REMARK  165  A    between atoms: _372  and  _374
REMARK  166  A    between atoms: _374  and  _375
REMARK  167  A    between atoms: _374  and  _377
REMARK  168  A    between atoms: _380  and  _382
REMARK  169  A    between atoms: _382  and  _383
REMARK  170  A    between atoms: _385  and  _387
REMARK  171  A    between atoms: _387  and  _388
REMARK  172  A    between atoms: _387  and  _390
REMARK  173  A    between atoms: _390  and  _391
REMARK  174  A    between atoms: _397  and  _399
REMARK  175  A    between atoms: _399  and  _400
REMARK  176  A    between atoms: _399  and  _402
REMARK  177  A    between atoms: _402  and  _403
REMARK  178  A    between atoms: _408  and  _409
REMARK  179  A    between atoms: _411  and  _413
REMARK  180  A    between atoms: _413  and  _414
REMARK  181  A    between atoms: _413  and  _416
REMARK  182  A    between atoms: _416  and  _417
REMARK  183  A    between atoms: _419  and  _421
REMARK  184  A    between atoms: _421  and  _422
REMARK  185  A    between atoms: _425  and  _427
REMARK  186  A    between atoms: _427  and  _428
REMARK  187  A    between atoms: _427  and  _430
REMARK  188  A    between atoms: _433  and  _435
REMARK  189  A    between atoms: _435  and  _436
REMARK  190  A    between atoms: _435  and  _438
REMARK  191  A    between atoms: _438  and  _439
REMARK  192  A    between atoms: _442  and  _444
REMARK  193  A    between atoms: _444  and  _445
REMARK  194  A    between atoms: _444  and  _447
REMARK  195  A    between atoms: _447  and  _448
REMARK  196  A    between atoms: _451  and  _453
REMARK  197  A    between atoms: _453  and  _454
REMARK  198  A    between atoms: _453  and  _456
REMARK  199  A    between atoms: _456  and  _457
REMARK  200  A    between atoms: _457  and  _458
REMARK  201  A    between atoms: _458  and  _459
REMARK  202  A    between atoms: _459  and  _460
REMARK  203  A    between atoms: _464  and  _466
REMARK  204  A    between atoms: _466  and  _467
REMARK  205  A    between atoms: _466  and  _469
REMARK  206  A    between atoms: _469  and  _470
REMARK  207  A    between atoms: _475  and  _477
REMARK  208  A    between atoms: _477  and  _478
REMARK  209  A    between atoms: _480  and  _482
REMARK  210  A    between atoms: _482  and  _483
REMARK  211  A    between atoms: _482  and  _485
REMARK  212  A    between atoms: _485  and  _486
REMARK  213  A    between atoms: _489  and  _491
REMARK  214  A    between atoms: _491  and  _492
REMARK  215  A    between atoms: _491  and  _494
REMARK  216  A    between atoms: _494  and  _495
REMARK  217  A    between atoms: _495  and  _496
REMARK  218  A    between atoms: _496  and  _497
REMARK  219  A    between atoms: _497  and  _498
REMARK  220  A    between atoms: _502  and  _504
REMARK  221  A    between atoms: _504  and  _505
REMARK  222  A    between atoms: _504  and  _507
REMARK  223  A    between atoms: _510  and  _512
REMARK  224  A    between atoms: _512  and  _513
REMARK  225  A    between atoms: _512  and  _515
REMARK  226  A    between atoms: _515  and  _516
REMARK  227  A    between atoms: _516  and  _517
REMARK  228  A    between atoms: _517  and  _518
REMARK  229  A    between atoms: _518  and  _519
REMARK                            x       y       z     vdW  Elec       q    Type
REMARK                         _______ _______ _______ _____ _____    ______ ____
ROOT
ATOM      1  O   HOH     1      24.495  22.395  16.064  0.00  0.00    +0.000 OA
ENDROOT
TORSDOF 0
REMARK  Name = ../refined-set-2016/2qg0/2qg0_pocket.pdb
REMARK  229 active torsions:
REMARK  status: ('A' for Active; 'I' for Inactive)
REMARK    1  A    between atoms: _1  and  _3
REMARK    2  A    between atoms: _3  and  _4
REMARK    3  A    between atoms: _3  and  _6
REMARK    4  A    between atoms: _6  and  _7
REMARK    5  A    between atoms: _10  and  _12
REMARK    6  A    between atoms: _12  and  _13
REMARK    7  A    between atoms: _12  and  _15
REMARK    8  A    between atoms: _15  and  _16
REMARK    9  A    between atoms: _19  and  _21
REMARK   10  A    between atoms: _21  and  _22
REMARK   11  A    between atoms: _21  and  _24
REMARK   12  A    between atoms: _24  and  _25
REMARK   13  A    between atoms: _25  and  _26
REMARK   14  A    between atoms: _29  and  _31
REMARK   15  A    between atoms: _31  and  _32
REMARK   16  A    between atoms: _31  and  _34
REMARK   17  A    between atoms: _34  and  _35
REMARK   18  A    between atoms: _38  and  _40
REMARK   19  A    between atoms: _40  and  _41
REMARK   20  A    between atoms: _40  and  _43
REMARK   21  A    between atoms: _43  and  _44
REMARK   22  A    between atoms: _47  and  _49
REMARK   23  A    between atoms: _49  and  _50
REMARK   24  A    between atoms: _49  and  _52
REMARK   25  A    between atoms: _52  and  _53
REMARK   26  A    between atoms: _55  and  _57
REMARK   27  A    between atoms: _57  and  _58
REMARK   28  A    between atoms: _57  and  _60
REMARK   29  A    between atoms: _60  and  _61
REMARK   30  A    between atoms: _66  and  _68
REMARK   31  A    between atoms: _68  and  _69
REMARK   32  A    between atoms: _68  and  _71
REMARK   33  A    between atoms: _71  and  _72
REMARK   34  A    between atoms: _74  and  _76
REMARK   35  A    between atoms: _76  and  _77
REMARK   36  A    between atoms: _76  and  _79
REMARK   37  A    between atoms: _79  and  _80
REMARK   38  A    between atoms: _82  and  _84
REMARK   39  A    between atoms: _84  and  _85
REMARK   40  A    between atoms: _84  and  _87
REMARK   41  A    between atoms: _87  and  _88
REMARK   42  A    between atoms: _91  and  _93
REMARK   43  A    between atoms: _93  and  _94
REMARK   44  A    between atoms: _97  and  _99
REMARK   45  A    between atoms: _99  and  _100
REMARK   46  A    between atoms: _99  and  _102
REMARK   47  A    between atoms: _102  and  _103
REMARK   48  A    between atoms: _106  and  _108
REMARK   49  A    between atoms: _108  and  _109
REMARK   50  A    between atoms: _108  and  _111
REMARK   51  A    between atoms: _111  and  _112
REMARK   52  A    between atoms: _115  and  _117
REMARK   53  A    between atoms: _117  and  _118
REMARK   54  A    between atoms: _117  and  _120
REMARK   55  A    between atoms: _120  and  _121
REMARK   56  A    between atoms: _121  and  _122
REMARK   57  A    between atoms: _122  and  _123
REMARK   58  A    between atoms: _123  and  _124
REMARK   59  A    between atoms: _128  and  _130
REMARK   60  A    between atoms: _130  and  _131
REMARK   61  A    between atoms: _130  and  _133
REMARK   62  A    between atoms: _133  and  _134
REMARK   63  A    between atoms: _137  and  _139
REMARK   64  A    between atoms: _139  and  _140
REMARK   65  A    between atoms: _139  and  _142
REMARK   66  A    between atoms: _142  and  _143
REMARK   67  A    between atoms: _143  and  _144
REMARK   68  A    between atoms: _147  and  _149
REMARK   69  A    between atoms: _149  and  _150
REMARK   70  A    between atoms: _149  and  _152
REMARK   71  A    between atoms: _152  and  _153
REMARK   72  A    between atoms: _156  and  _158
REMARK   73  A    between atoms: _158  and  _159
REMARK   74  A    between atoms: _158  and  _161
REMARK   75  A    between atoms: _161  and  _162
REMARK   76  A    between atoms: _165  and  _167
REMARK   77  A    between atoms: _167  and  _168
REMARK   78  A    between atoms: _167  and  _170
REMARK   79  A    between atoms: _173  and  _175
REMARK   80  A    between atoms: _175  and  _176
REMARK   81  A    between atoms: _175  and  _178
REMARK   82  A    between atoms: _178  and  _179
REMARK   83  A    between atoms: _182  and  _184
REMARK   84  A    between atoms: _184  and  _185
REMARK   85  A    between atoms: _184  and  _187
REMARK   86  A    between atoms: _187  and  _188
REMARK   87  A    between atoms: _191  and  _193
REMARK   88  A    between atoms: _193  and  _194
REMARK   89  A    between atoms: _196  and  _198
REMARK   90  A    between atoms: _198  and  _199
REMARK   91  A    between atoms: _198  and  _201
REMARK   92  A    between atoms: _201  and  _202
REMARK   93  A    between atoms: _205  and  _207
REMARK   94  A    between atoms: _207  and  _208
REMARK   95  A    between atoms: _210  and  _212
REMARK   96  A    between atoms: _212  and  _213
REMARK   97  A    between atoms: _212  and  _215
REMARK   98  A    between atoms: _215  and  _216
REMARK   99  A    between atoms: _216  and  _217
REMARK  100  A    between atoms: _219  and  _221
REMARK  101  A    between atoms: _221  and  _222
REMARK  102  A    between atoms: _221  and  _224
REMARK  103  A    between atoms: _224  and  _225
REMARK  104  A    between atoms: _228  and  _230
REMARK  105  A    between atoms: _230  and  _231
REMARK  106  A    between atoms: _230  and  _233
REMARK  107  A    between atoms: _233  and  _234
REMARK  108  A    between atoms: _237  and  _239
REMARK  109  A    between atoms: _239  and  _240
REMARK  110  A    between atoms: _239  and  _242
REMARK  111  A    between atoms: _242  and  _243
REMARK  112  A    between atoms: _246  and  _248
REMARK  113  A    between atoms: _248  and  _249
REMARK  114  A    between atoms: _248  and  _251
REMARK  115  A    between atoms: _251  and  _252
REMARK  116  A    between atoms: _257  and  _259
REMARK  117  A    between atoms: _259  and  _260
REMARK  118  A    between atoms: _259  and  _262
REMARK  119  A    between atoms: _262  and  _263
REMARK  120  A    between atoms: _268  and  _270
REMARK  121  A    between atoms: _270  and  _271
REMARK  122  A    between atoms: _270  and  _273
REMARK  123  A    between atoms: _273  and  _274
REMARK  124  A    between atoms: _277  and  _279
REMARK  125  A    between atoms: _279  and  _280
REMARK  126  A    between atoms: _282  and  _284
REMARK  127  A    between atoms: _284  and  _285
REMARK  128  A    between atoms: _284  and  _287
REMARK  129  A    between atoms: _287  and  _288
REMARK  130  A    between atoms: _291  and  _293
REMARK  131  A    between atoms: _293  and  _294
REMARK  132  A    between atoms: _293  and  _296
REMARK  133  A    between atoms: _296  and  _297
REMARK  134  A    between atoms: _300  and  _302
REMARK  135  A    between atoms: _302  and  _303
REMARK  136  A    between atoms: _306  and  _308
REMARK  137  A    between atoms: _308  and  _309
REMARK  138  A    between atoms: _308  and  _311
REMARK  139  A    between atoms: _311  and  _312
REMARK  140  A    between atoms: _312  and  _313
REMARK  141  A    between atoms: _313  and  _314
REMARK  142  A    between atoms: _314  and  _315
REMARK  143  A    between atoms: _319  and  _321
REMARK  144  A    between atoms: _321  and  _322
REMARK  145  A    between atoms: _321  and  _324
REMARK  146  A    between atoms: _324  and  _325
REMARK  147  A    between atoms: _327  and  _329
REMARK  148  A    between atoms: _329  and  _330
REMARK  149  A    between atoms: _332  and  _334
REMARK  150  A    between atoms: _334  and  _335
REMARK  151  A    between atoms: _334  and  _337
REMARK  152  A    between atoms: _337  and  _338
REMARK  153  A    between atoms: _341  and  _343
REMARK  154  A    between atoms: _343  and  _344
REMARK  155  A    between atoms: _343  and  _346
REMARK  156  A    between atoms: _346  and  _347
REMARK  157  A    between atoms: _350  and  _352
REMARK  158  A    between atoms: _352  and  _353
REMARK  159  A    between atoms: _355  and  _357
REMARK  160  A    between atoms: _357  and  _358
REMARK  161  A    between atoms: _357  and  _360
REMARK  162  A    between atoms: _360  and  _361
REMARK  163  A    between atoms: _367  and  _369
REMARK  164  A    between atoms: _369  and  _370
REMARK  165  A    between atoms: _372  and  _374
REMARK  166  A    between atoms: _374  and  _375
REMARK  167  A    between atoms: _374  and  _377
REMARK  168  A    between atoms: _380  and  _382
REMARK  169  A    between atoms: _382  and  _383
REMARK  170  A    between atoms: _385  and  _387
REMARK  171  A    between atoms: _387  and  _388
REMARK  172  A    between atoms: _387  and  _390
REMARK  173  A    between atoms: _390  and  _391
REMARK  174  A    between atoms: _397  and  _399
REMARK  175  A    between atoms: _399  and  _400
REMARK  176  A    between atoms: _399  and  _402
REMARK  177  A    between atoms: _402  and  _403
REMARK  178  A    between atoms: _408  and  _409
REMARK  179  A    between atoms: _411  and  _413
REMARK  180  A    between atoms: _413  and  _414
REMARK  181  A    between atoms: _413  and  _416
REMARK  182  A    between atoms: _416  and  _417
REMARK  183  A    between atoms: _419  and  _421
REMARK  184  A    between atoms: _421  and  _422
REMARK  185  A    between atoms: _425  and  _427
REMARK  186  A    between atoms: _427  and  _428
REMARK  187  A    between atoms: _427  and  _430
REMARK  188  A    between atoms: _433  and  _435
REMARK  189  A    between atoms: _435  and  _436
REMARK  190  A    between atoms: _435  and  _438
REMARK  191  A    between atoms: _438  and  _439
REMARK  192  A    between atoms: _442  and  _444
REMARK  193  A    between atoms: _444  and  _445
REMARK  194  A    between atoms: _444  and  _447
REMARK  195  A    between atoms: _447  and  _448
REMARK  196  A    between atoms: _451  and  _453
REMARK  197  A    between atoms: _453  and  _454
REMARK  198  A    between atoms: _453  and  _456
REMARK  199  A    between atoms: _456  and  _457
REMARK  200  A    between atoms: _457  and  _458
REMARK  201  A    between atoms: _458  and  _459
REMARK  202  A    between atoms: _459  and  _460
REMARK  203  A    between atoms: _464  and  _466
REMARK  204  A    between atoms: _466  and  _467
REMARK  205  A    between atoms: _466  and  _469
REMARK  206  A    between atoms: _469  and  _470
REMARK  207  A    between atoms: _475  and  _477
REMARK  208  A    between atoms: _477  and  _478
REMARK  209  A    between atoms: _480  and  _482
REMARK  210  A    between atoms: _482  and  _483
REMARK  211  A    between atoms: _482  and  _485
REMARK  212  A    between atoms: _485  and  _486
REMARK  213  A    between atoms: _489  and  _491
REMARK  214  A    between atoms: _491  and  _492
REMARK  215  A    between atoms: _491  and  _494
REMARK  216  A    between atoms: _494  and  _495
REMARK  217  A    between atoms: _495  and  _496
REMARK  218  A    between atoms: _496  and  _497
REMARK  219  A    between atoms: _497  and  _498
REMARK  220  A    between atoms: _502  and  _504
REMARK  221  A    between atoms: _504  and  _505
REMARK  222  A    between atoms: _504  and  _507
REMARK  223  A    between atoms: _510  and  _512
REMARK  224  A    between atoms: _512  and  _513
REMARK  225  A    between atoms: _512  and  _515
REMARK  226  A    between atoms: _515  and  _516
REMARK  227  A    between atoms: _516  and  _517
REMARK  228  A    between atoms: _517  and  _518
REMARK  229  A    between atoms: _518  and  _519
REMARK                            x       y       z     vdW  Elec       q    Type
REMARK                         _______ _______ _______ _____ _____    ______ ____
ROOT
ATOM      1  O   HOH     1      28.340  23.099  21.172  0.00  0.00    +0.000 OA
ENDROOT
TORSDOF 0
REMARK  Name = ../refined-set-2016/2qg0/2qg0_pocket.pdb
REMARK  229 active torsions:
REMARK  status: ('A' for Active; 'I' for Inactive)
REMARK    1  A    between atoms: _1  and  _3
REMARK    2  A    between atoms: _3  and  _4
REMARK    3  A    between atoms: _3  and  _6
REMARK    4  A    between atoms: _6  and  _7
REMARK    5  A    between atoms: _10  and  _12
REMARK    6  A    between atoms: _12  and  _13
REMARK    7  A    between atoms: _12  and  _15
REMARK    8  A    between atoms: _15  and  _16
REMARK    9  A    between atoms: _19  and  _21
REMARK   10  A    between atoms: _21  and  _22
REMARK   11  A    between atoms: _21  and  _24
REMARK   12  A    between atoms: _24  and  _25
REMARK   13  A    between atoms: _25  and  _26
REMARK   14  A    between atoms: _29  and  _31
REMARK   15  A    between atoms: _31  and  _32
REMARK   16  A    between atoms: _31  and  _34
REMARK   17  A    between atoms: _34  and  _35
REMARK   18  A    between atoms: _38  and  _40
REMARK   19  A    between atoms: _40  and  _41
REMARK   20  A    between atoms: _40  and  _43
REMARK   21  A    between atoms: _43  and  _44
REMARK   22  A    between atoms: _47  and  _49
REMARK   23  A    between atoms: _49  and  _50
REMARK   24  A    between atoms: _49  and  _52
REMARK   25  A    between atoms: _52  and  _53
REMARK   26  A    between atoms: _55  and  _57
REMARK   27  A    between atoms: _57  and  _58
REMARK   28  A    between atoms: _57  and  _60
REMARK   29  A    between atoms: _60  and  _61
REMARK   30  A    between atoms: _66  and  _68
REMARK   31  A    between atoms: _68  and  _69
REMARK   32  A    between atoms: _68  and  _71
REMARK   33  A    between atoms: _71  and  _72
REMARK   34  A    between atoms: _74  and  _76
REMARK   35  A    between atoms: _76  and  _77
REMARK   36  A    between atoms: _76  and  _79
REMARK   37  A    between atoms: _79  and  _80
REMARK   38  A    between atoms: _82  and  _84
REMARK   39  A    between atoms: _84  and  _85
REMARK   40  A    between atoms: _84  and  _87
REMARK   41  A    between atoms: _87  and  _88
REMARK   42  A    between atoms: _91  and  _93
REMARK   43  A    between atoms: _93  and  _94
REMARK   44  A    between atoms: _97  and  _99
REMARK   45  A    between atoms: _99  and  _100
REMARK   46  A    between atoms: _99  and  _102
REMARK   47  A    between atoms: _102  and  _103
REMARK   48  A    between atoms: _106  and  _108
REMARK   49  A    between atoms: _108  and  _109
REMARK   50  A    between atoms: _108  and  _111
REMARK   51  A    between atoms: _111  and  _112
REMARK   52  A    between atoms: _115  and  _117
REMARK   53  A    between atoms: _117  and  _118
REMARK   54  A    between atoms: _117  and  _120
REMARK   55  A    between atoms: _120  and  _121
REMARK   56  A    between atoms: _121  and  _122
REMARK   57  A    between atoms: _122  and  _123
REMARK   58  A    between atoms: _123  and  _124
REMARK   59  A    between atoms: _128  and  _130
REMARK   60  A    between atoms: _130  and  _131
REMARK   61  A    between atoms: _130  and  _133
REMARK   62  A    between atoms: _133  and  _134
REMARK   63  A    between atoms: _137  and  _139
REMARK   64  A    between atoms: _139  and  _140
REMARK   65  A    between atoms: _139  and  _142
REMARK   66  A    between atoms: _142  and  _143
REMARK   67  A    between atoms: _143  and  _144
REMARK   68  A    between atoms: _147  and  _149
REMARK   69  A    between atoms: _149  and  _150
REMARK   70  A    between atoms: _149  and  _152
REMARK   71  A    between atoms: _152  and  _153
REMARK   72  A    between atoms: _156  and  _158
REMARK   73  A    between atoms: _158  and  _159
REMARK   74  A    between atoms: _158  and  _161
REMARK   75  A    between atoms: _161  and  _162
REMARK   76  A    between atoms: _165  and  _167
REMARK   77  A    between atoms: _167  and  _168
REMARK   78  A    between atoms: _167  and  _170
REMARK   79  A    between atoms: _173  and  _175
REMARK   80  A    between atoms: _175  and  _176
REMARK   81  A    between atoms: _175  and  _178
REMARK   82  A    between atoms: _178  and  _179
REMARK   83  A    between atoms: _182  and  _184
REMARK   84  A    between atoms: _184  and  _185
REMARK   85  A    between atoms: _184  and  _187
REMARK   86  A    between atoms: _187  and  _188
REMARK   87  A    between atoms: _191  and  _193
REMARK   88  A    between atoms: _193  and  _194
REMARK   89  A    between atoms: _196  and  _198
REMARK   90  A    between atoms: _198  and  _199
REMARK   91  A    between atoms: _198  and  _201
REMARK   92  A    between atoms: _201  and  _202
REMARK   93  A    between atoms: _205  and  _207
REMARK   94  A    between atoms: _207  and  _208
REMARK   95  A    between atoms: _210  and  _212
REMARK   96  A    between atoms: _212  and  _213
REMARK   97  A    between atoms: _212  and  _215
REMARK   98  A    between atoms: _215  and  _216
REMARK   99  A    between atoms: _216  and  _217
REMARK  100  A    between atoms: _219  and  _221
REMARK  101  A    between atoms: _221  and  _222
REMARK  102  A    between atoms: _221  and  _224
REMARK  103  A    between atoms: _224  and  _225
REMARK  104  A    between atoms: _228  and  _230
REMARK  105  A    between atoms: _230  and  _231
REMARK  106  A    between atoms: _230  and  _233
REMARK  107  A    between atoms: _233  and  _234
REMARK  108  A    between atoms: _237  and  _239
REMARK  109  A    between atoms: _239  and  _240
REMARK  110  A    between atoms: _239  and  _242
REMARK  111  A    between atoms: _242  and  _243
REMARK  112  A    between atoms: _246  and  _248
REMARK  113  A    between atoms: _248  and  _249
REMARK  114  A    between atoms: _248  and  _251
REMARK  115  A    between atoms: _251  and  _252
REMARK  116  A    between atoms: _257  and  _259
REMARK  117  A    between atoms: _259  and  _260
REMARK  118  A    between atoms: _259  and  _262
REMARK  119  A    between atoms: _262  and  _263
REMARK  120  A    between atoms: _268  and  _270
REMARK  121  A    between atoms: _270  and  _271
REMARK  122  A    between atoms: _270  and  _273
REMARK  123  A    between atoms: _273  and  _274
REMARK  124  A    between atoms: _277  and  _279
REMARK  125  A    between atoms: _279  and  _280
REMARK  126  A    between atoms: _282  and  _284
REMARK  127  A    between atoms: _284  and  _285
REMARK  128  A    between atoms: _284  and  _287
REMARK  129  A    between atoms: _287  and  _288
REMARK  130  A    between atoms: _291  and  _293
REMARK  131  A    between atoms: _293  and  _294
REMARK  132  A    between atoms: _293  and  _296
REMARK  133  A    between atoms: _296  and  _297
REMARK  134  A    between atoms: _300  and  _302
REMARK  135  A    between atoms: _302  and  _303
REMARK  136  A    between atoms: _306  and  _308
REMARK  137  A    between atoms: _308  and  _309
REMARK  138  A    between atoms: _308  and  _311
REMARK  139  A    between atoms: _311  and  _312
REMARK  140  A    between atoms: _312  and  _313
REMARK  141  A    between atoms: _313  and  _314
REMARK  142  A    between atoms: _314  and  _315
REMARK  143  A    between atoms: _319  and  _321
REMARK  144  A    between atoms: _321  and  _322
REMARK  145  A    between atoms: _321  and  _324
REMARK  146  A    between atoms: _324  and  _325
REMARK  147  A    between atoms: _327  and  _329
REMARK  148  A    between atoms: _329  and  _330
REMARK  149  A    between atoms: _332  and  _334
REMARK  150  A    between atoms: _334  and  _335
REMARK  151  A    between atoms: _334  and  _337
REMARK  152  A    between atoms: _337  and  _338
REMARK  153  A    between atoms: _341  and  _343
REMARK  154  A    between atoms: _343  and  _344
REMARK  155  A    between atoms: _343  and  _346
REMARK  156  A    between atoms: _346  and  _347
REMARK  157  A    between atoms: _350  and  _352
REMARK  158  A    between atoms: _352  and  _353
REMARK  159  A    between atoms: _355  and  _357
REMARK  160  A    between atoms: _357  and  _358
REMARK  161  A    between atoms: _357  and  _360
REMARK  162  A    between atoms: _360  and  _361
REMARK  163  A    between atoms: _367  and  _369
REMARK  164  A    between atoms: _369  and  _370
REMARK  165  A    between atoms: _372  and  _374
REMARK  166  A    between atoms: _374  and  _375
REMARK  167  A    between atoms: _374  and  _377
REMARK  168  A    between atoms: _380  and  _382
REMARK  169  A    between atoms: _382  and  _383
REMARK  170  A    between atoms: _385  and  _387
REMARK  171  A    between atoms: _387  and  _388
REMARK  172  A    between atoms: _387  and  _390
REMARK  173  A    between atoms: _390  and  _391
REMARK  174  A    between atoms: _397  and  _399
REMARK  175  A    between atoms: _399  and  _400
REMARK  176  A    between atoms: _399  and  _402
REMARK  177  A    between atoms: _402  and  _403
REMARK  178  A    between atoms: _408  and  _409
REMARK  179  A    between atoms: _411  and  _413
REMARK  180  A    between atoms: _413  and  _414
REMARK  181  A    between atoms: _413  and  _416
REMARK  182  A    between atoms: _416  and  _417
REMARK  183  A    between atoms: _419  and  _421
REMARK  184  A    between atoms: _421  and  _422
REMARK  185  A    between atoms: _425  and  _427
REMARK  186  A    between atoms: _427  and  _428
REMARK  187  A    between atoms: _427  and  _430
REMARK  188  A    between atoms: _433  and  _435
REMARK  189  A    between atoms: _435  and  _436
REMARK  190  A    between atoms: _435  and  _438
REMARK  191  A    between atoms: _438  and  _439
REMARK  192  A    between atoms: _442  and  _444
REMARK  193  A    between atoms: _444  and  _445
REMARK  194  A    between atoms: _444  and  _447
REMARK  195  A    between atoms: _447  and  _448
REMARK  196  A    between atoms: _451  and  _453
REMARK  197  A    between atoms: _453  and  _454
REMARK  198  A    between atoms: _453  and  _456
REMARK  199  A    between atoms: _456  and  _457
REMARK  200  A    between atoms: _457  and  _458
REMARK  201  A    between atoms: _458  and  _459
REMARK  202  A    between atoms: _459  and  _460
REMARK  203  A    between atoms: _464  and  _466
REMARK  204  A    between atoms: _466  and  _467
REMARK  205  A    between atoms: _466  and  _469
REMARK  206  A    between atoms: _469  and  _470
REMARK  207  A    between atoms: _475  and  _477
REMARK  208  A    between atoms: _477  and  _478
REMARK  209  A    between atoms: _480  and  _482
REMARK  210  A    between atoms: _482  and  _483
REMARK  211  A    between atoms: _482  and  _485
REMARK  212  A    between atoms: _485  and  _486
REMARK  213  A    between atoms: _489  and  _491
REMARK  214  A    between atoms: _491  and  _492
REMARK  215  A    between atoms: _491  and  _494
REMARK  216  A    between atoms: _494  and  _495
REMARK  217  A    between atoms: _495  and  _496
REMARK  218  A    between atoms: _496  and  _497
REMARK  219  A    between atoms: _497  and  _498
REMARK  220  A    between atoms: _502  and  _504
REMARK  221  A    between atoms: _504  and  _505
REMARK  222  A    between atoms: _504  and  _507
REMARK  223  A    between atoms: _510  and  _512
REMARK  224  A    between atoms: _512  and  _513
REMARK  225  A    between atoms: _512  and  _515
REMARK  226  A    between atoms: _515  and  _516
REMARK  227  A    between atoms: _516  and  _517
REMARK  228  A    between atoms: _517  and  _518
REMARK  229  A    between atoms: _518  and  _519
REMARK                            x       y       z     vdW  Elec       q    Type
REMARK                         _______ _______ _______ _____ _____    ______ ____
ROOT
ATOM      1  O   HOH     1      23.294  24.875   5.617  0.00  0.00    +0.000 OA
ENDROOT
TORSDOF 0
REMARK  Name = ../refined-set-2016/2qg0/2qg0_pocket.pdb
REMARK  229 active torsions:
REMARK  status: ('A' for Active; 'I' for Inactive)
REMARK    1  A    between atoms: _1  and  _3
REMARK    2  A    between atoms: _3  and  _4
REMARK    3  A    between atoms: _3  and  _6
REMARK    4  A    between atoms: _6  and  _7
REMARK    5  A    between atoms: _10  and  _12
REMARK    6  A    between atoms: _12  and  _13
REMARK    7  A    between atoms: _12  and  _15
REMARK    8  A    between atoms: _15  and  _16
REMARK    9  A    between atoms: _19  and  _21
REMARK   10  A    between atoms: _21  and  _22
REMARK   11  A    between atoms: _21  and  _24
REMARK   12  A    between atoms: _24  and  _25
REMARK   13  A    between atoms: _25  and  _26
REMARK   14  A    between atoms: _29  and  _31
REMARK   15  A    between atoms: _31  and  _32
REMARK   16  A    between atoms: _31  and  _34
REMARK   17  A    between atoms: _34  and  _35
REMARK   18  A    between atoms: _38  and  _40
REMARK   19  A    between atoms: _40  and  _41
REMARK   20  A    between atoms: _40  and  _43
REMARK   21  A    between atoms: _43  and  _44
REMARK   22  A    between atoms: _47  and  _49
REMARK   23  A    between atoms: _49  and  _50
REMARK   24  A    between atoms: _49  and  _52
REMARK   25  A    between atoms: _52  and  _53
REMARK   26  A    between atoms: _55  and  _57
REMARK   27  A    between atoms: _57  and  _58
REMARK   28  A    between atoms: _57  and  _60
REMARK   29  A    between atoms: _60  and  _61
REMARK   30  A    between atoms: _66  and  _68
REMARK   31  A    between atoms: _68  and  _69
REMARK   32  A    between atoms: _68  and  _71
REMARK   33  A    between atoms: _71  and  _72
REMARK   34  A    between atoms: _74  and  _76
REMARK   35  A    between atoms: _76  and  _77
REMARK   36  A    between atoms: _76  and  _79
REMARK   37  A    between atoms: _79  and  _80
REMARK   38  A    between atoms: _82  and  _84
REMARK   39  A    between atoms: _84  and  _85
REMARK   40  A    between atoms: _84  and  _87
REMARK   41  A    between atoms: _87  and  _88
REMARK   42  A    between atoms: _91  and  _93
REMARK   43  A    between atoms: _93  and  _94
REMARK   44  A    between atoms: _97  and  _99
REMARK   45  A    between atoms: _99  and  _100
REMARK   46  A    between atoms: _99  and  _102
REMARK   47  A    between atoms: _102  and  _103
REMARK   48  A    between atoms: _106  and  _108
REMARK   49  A    between atoms: _108  and  _109
REMARK   50  A    between atoms: _108  and  _111
REMARK   51  A    between atoms: _111  and  _112
REMARK   52  A    between atoms: _115  and  _117
REMARK   53  A    between atoms: _117  and  _118
REMARK   54  A    between atoms: _117  and  _120
REMARK   55  A    between atoms: _120  and  _121
REMARK   56  A    between atoms: _121  and  _122
REMARK   57  A    between atoms: _122  and  _123
REMARK   58  A    between atoms: _123  and  _124
REMARK   59  A    between atoms: _128  and  _130
REMARK   60  A    between atoms: _130  and  _131
REMARK   61  A    between atoms: _130  and  _133
REMARK   62  A    between atoms: _133  and  _134
REMARK   63  A    between atoms: _137  and  _139
REMARK   64  A    between atoms: _139  and  _140
REMARK   65  A    between atoms: _139  and  _142
REMARK   66  A    between atoms: _142  and  _143
REMARK   67  A    between atoms: _143  and  _144
REMARK   68  A    between atoms: _147  and  _149
REMARK   69  A    between atoms: _149  and  _150
REMARK   70  A    between atoms: _149  and  _152
REMARK   71  A    between atoms: _152  and  _153
REMARK   72  A    between atoms: _156  and  _158
REMARK   73  A    between atoms: _158  and  _159
REMARK   74  A    between atoms: _158  and  _161
REMARK   75  A    between atoms: _161  and  _162
REMARK   76  A    between atoms: _165  and  _167
REMARK   77  A    between atoms: _167  and  _168
REMARK   78  A    between atoms: _167  and  _170
REMARK   79  A    between atoms: _173  and  _175
REMARK   80  A    between atoms: _175  and  _176
REMARK   81  A    between atoms: _175  and  _178
REMARK   82  A    between atoms: _178  and  _179
REMARK   83  A    between atoms: _182  and  _184
REMARK   84  A    between atoms: _184  and  _185
REMARK   85  A    between atoms: _184  and  _187
REMARK   86  A    between atoms: _187  and  _188
REMARK   87  A    between atoms: _191  and  _193
REMARK   88  A    between atoms: _193  and  _194
REMARK   89  A    between atoms: _196  and  _198
REMARK   90  A    between atoms: _198  and  _199
REMARK   91  A    between atoms: _198  and  _201
REMARK   92  A    between atoms: _201  and  _202
REMARK   93  A    between atoms: _205  and  _207
REMARK   94  A    between atoms: _207  and  _208
REMARK   95  A    between atoms: _210  and  _212
REMARK   96  A    between atoms: _212  and  _213
REMARK   97  A    between atoms: _212  and  _215
REMARK   98  A    between atoms: _215  and  _216
REMARK   99  A    between atoms: _216  and  _217
REMARK  100  A    between atoms: _219  and  _221
REMARK  101  A    between atoms: _221  and  _222
REMARK  102  A    between atoms: _221  and  _224
REMARK  103  A    between atoms: _224  and  _225
REMARK  104  A    between atoms: _228  and  _230
REMARK  105  A    between atoms: _230  and  _231
REMARK  106  A    between atoms: _230  and  _233
REMARK  107  A    between atoms: _233  and  _234
REMARK  108  A    between atoms: _237  and  _239
REMARK  109  A    between atoms: _239  and  _240
REMARK  110  A    between atoms: _239  and  _242
REMARK  111  A    between atoms: _242  and  _243
REMARK  112  A    between atoms: _246  and  _248
REMARK  113  A    between atoms: _248  and  _249
REMARK  114  A    between atoms: _248  and  _251
REMARK  115  A    between atoms: _251  and  _252
REMARK  116  A    between atoms: _257  and  _259
REMARK  117  A    between atoms: _259  and  _260
REMARK  118  A    between atoms: _259  and  _262
REMARK  119  A    between atoms: _262  and  _263
REMARK  120  A    between atoms: _268  and  _270
REMARK  121  A    between atoms: _270  and  _271
REMARK  122  A    between atoms: _270  and  _273
REMARK  123  A    between atoms: _273  and  _274
REMARK  124  A    between atoms: _277  and  _279
REMARK  125  A    between atoms: _279  and  _280
REMARK  126  A    between atoms: _282  and  _284
REMARK  127  A    between atoms: _284  and  _285
REMARK  128  A    between atoms: _284  and  _287
REMARK  129  A    between atoms: _287  and  _288
REMARK  130  A    between atoms: _291  and  _293
REMARK  131  A    between atoms: _293  and  _294
REMARK  132  A    between atoms: _293  and  _296
REMARK  133  A    between atoms: _296  and  _297
REMARK  134  A    between atoms: _300  and  _302
REMARK  135  A    between atoms: _302  and  _303
REMARK  136  A    between atoms: _306  and  _308
REMARK  137  A    between atoms: _308  and  _309
REMARK  138  A    between atoms: _308  and  _311
REMARK  139  A    between atoms: _311  and  _312
REMARK  140  A    between atoms: _312  and  _313
REMARK  141  A    between atoms: _313  and  _314
REMARK  142  A    between atoms: _314  and  _315
REMARK  143  A    between atoms: _319  and  _321
REMARK  144  A    between atoms: _321  and  _322
REMARK  145  A    between atoms: _321  and  _324
REMARK  146  A    between atoms: _324  and  _325
REMARK  147  A    between atoms: _327  and  _329
REMARK  148  A    between atoms: _329  and  _330
REMARK  149  A    between atoms: _332  and  _334
REMARK  150  A    between atoms: _334  and  _335
REMARK  151  A    between atoms: _334  and  _337
REMARK  152  A    between atoms: _337  and  _338
REMARK  153  A    between atoms: _341  and  _343
REMARK  154  A    between atoms: _343  and  _344
REMARK  155  A    between atoms: _343  and  _346
REMARK  156  A    between atoms: _346  and  _347
REMARK  157  A    between atoms: _350  and  _352
REMARK  158  A    between atoms: _352  and  _353
REMARK  159  A    between atoms: _355  and  _357
REMARK  160  A    between atoms: _357  and  _358
REMARK  161  A    between atoms: _357  and  _360
REMARK  162  A    between atoms: _360  and  _361
REMARK  163  A    between atoms: _367  and  _369
REMARK  164  A    between atoms: _369  and  _370
REMARK  165  A    between atoms: _372  and  _374
REMARK  166  A    between atoms: _374  and  _375
REMARK  167  A    between atoms: _374  and  _377
REMARK  168  A    between atoms: _380  and  _382
REMARK  169  A    between atoms: _382  and  _383
REMARK  170  A    between atoms: _385  and  _387
REMARK  171  A    between atoms: _387  and  _388
REMARK  172  A    between atoms: _387  and  _390
REMARK  173  A    between atoms: _390  and  _391
REMARK  174  A    between atoms: _397  and  _399
REMARK  175  A    between atoms: _399  and  _400
REMARK  176  A    between atoms: _399  and  _402
REMARK  177  A    between atoms: _402  and  _403
REMARK  178  A    between atoms: _408  and  _409
REMARK  179  A    between atoms: _411  and  _413
REMARK  180  A    between atoms: _413  and  _414
REMARK  181  A    between atoms: _413  and  _416
REMARK  182  A    between atoms: _416  and  _417
REMARK  183  A    between atoms: _419  and  _421
REMARK  184  A    between atoms: _421  and  _422
REMARK  185  A    between atoms: _425  and  _427
REMARK  186  A    between atoms: _427  and  _428
REMARK  187  A    between atoms: _427  and  _430
REMARK  188  A    between atoms: _433  and  _435
REMARK  189  A    between atoms: _435  and  _436
REMARK  190  A    between atoms: _435  and  _438
REMARK  191  A    between atoms: _438  and  _439
REMARK  192  A    between atoms: _442  and  _444
REMARK  193  A    between atoms: _444  and  _445
REMARK  194  A    between atoms: _444  and  _447
REMARK  195  A    between atoms: _447  and  _448
REMARK  196  A    between atoms: _451  and  _453
REMARK  197  A    between atoms: _453  and  _454
REMARK  198  A    between atoms: _453  and  _456
REMARK  199  A    between atoms: _456  and  _457
REMARK  200  A    between atoms: _457  and  _458
REMARK  201  A    between atoms: _458  and  _459
REMARK  202  A    between atoms: _459  and  _460
REMARK  203  A    between atoms: _464  and  _466
REMARK  204  A    between atoms: _466  and  _467
REMARK  205  A    between atoms: _466  and  _469
REMARK  206  A    between atoms: _469  and  _470
REMARK  207  A    between atoms: _475  and  _477
REMARK  208  A    between atoms: _477  and  _478
REMARK  209  A    between atoms: _480  and  _482
REMARK  210  A    between atoms: _482  and  _483
REMARK  211  A    between atoms: _482  and  _485
REMARK  212  A    between atoms: _485  and  _486
REMARK  213  A    between atoms: _489  and  _491
REMARK  214  A    between atoms: _491  and  _492
REMARK  215  A    between atoms: _491  and  _494
REMARK  216  A    between atoms: _494  and  _495
REMARK  217  A    between atoms: _495  and  _496
REMARK  218  A    between atoms: _496  and  _497
REMARK  219  A    between atoms: _497  and  _498
REMARK  220  A    between atoms: _502  and  _504
REMARK  221  A    between atoms: _504  and  _505
REMARK  222  A    between atoms: _504  and  _507
REMARK  223  A    between atoms: _510  and  _512
REMARK  224  A    between atoms: _512  and  _513
REMARK  225  A    between atoms: _512  and  _515
REMARK  226  A    between atoms: _515  and  _516
REMARK  227  A    between atoms: _516  and  _517
REMARK  228  A    between atoms: _517  and  _518
REMARK  229  A    between atoms: _518  and  _519
REMARK                            x       y       z     vdW  Elec       q    Type
REMARK                         _______ _______ _______ _____ _____    ______ ____
ROOT
ATOM      1  O   HOH     1      16.076  16.626  10.925  0.00  0.00    +0.000 OA
ENDROOT
TORSDOF 0
REMARK  Name = ../refined-set-2016/2qg0/2qg0_pocket.pdb
REMARK  229 active torsions:
REMARK  status: ('A' for Active; 'I' for Inactive)
REMARK    1  A    between atoms: _1  and  _3
REMARK    2  A    between atoms: _3  and  _4
REMARK    3  A    between atoms: _3  and  _6
REMARK    4  A    between atoms: _6  and  _7
REMARK    5  A    between atoms: _10  and  _12
REMARK    6  A    between atoms: _12  and  _13
REMARK    7  A    between atoms: _12  and  _15
REMARK    8  A    between atoms: _15  and  _16
REMARK    9  A    between atoms: _19  and  _21
REMARK   10  A    between atoms: _21  and  _22
REMARK   11  A    between atoms: _21  and  _24
REMARK   12  A    between atoms: _24  and  _25
REMARK   13  A    between atoms: _25  and  _26
REMARK   14  A    between atoms: _29  and  _31
REMARK   15  A    between atoms: _31  and  _32
REMARK   16  A    between atoms: _31  and  _34
REMARK   17  A    between atoms: _34  and  _35
REMARK   18  A    between atoms: _38  and  _40
REMARK   19  A    between atoms: _40  and  _41
REMARK   20  A    between atoms: _40  and  _43
REMARK   21  A    between atoms: _43  and  _44
REMARK   22  A    between atoms: _47  and  _49
REMARK   23  A    between atoms: _49  and  _50
REMARK   24  A    between atoms: _49  and  _52
REMARK   25  A    between atoms: _52  and  _53
REMARK   26  A    between atoms: _55  and  _57
REMARK   27  A    between atoms: _57  and  _58
REMARK   28  A    between atoms: _57  and  _60
REMARK   29  A    between atoms: _60  and  _61
REMARK   30  A    between atoms: _66  and  _68
REMARK   31  A    between atoms: _68  and  _69
REMARK   32  A    between atoms: _68  and  _71
REMARK   33  A    between atoms: _71  and  _72
REMARK   34  A    between atoms: _74  and  _76
REMARK   35  A    between atoms: _76  and  _77
REMARK   36  A    between atoms: _76  and  _79
REMARK   37  A    between atoms: _79  and  _80
REMARK   38  A    between atoms: _82  and  _84
REMARK   39  A    between atoms: _84  and  _85
REMARK   40  A    between atoms: _84  and  _87
REMARK   41  A    between atoms: _87  and  _88
REMARK   42  A    between atoms: _91  and  _93
REMARK   43  A    between atoms: _93  and  _94
REMARK   44  A    between atoms: _97  and  _99
REMARK   45  A    between atoms: _99  and  _100
REMARK   46  A    between atoms: _99  and  _102
REMARK   47  A    between atoms: _102  and  _103
REMARK   48  A    between atoms: _106  and  _108
REMARK   49  A    between atoms: _108  and  _109
REMARK   50  A    between atoms: _108  and  _111
REMARK   51  A    between atoms: _111  and  _112
REMARK   52  A    between atoms: _115  and  _117
REMARK   53  A    between atoms: _117  and  _118
REMARK   54  A    between atoms: _117  and  _120
REMARK   55  A    between atoms: _120  and  _121
REMARK   56  A    between atoms: _121  and  _122
REMARK   57  A    between atoms: _122  and  _123
REMARK   58  A    between atoms: _123  and  _124
REMARK   59  A    between atoms: _128  and  _130
REMARK   60  A    between atoms: _130  and  _131
REMARK   61  A    between atoms: _130  and  _133
REMARK   62  A    between atoms: _133  and  _134
REMARK   63  A    between atoms: _137  and  _139
REMARK   64  A    between atoms: _139  and  _140
REMARK   65  A    between atoms: _139  and  _142
REMARK   66  A    between atoms: _142  and  _143
REMARK   67  A    between atoms: _143  and  _144
REMARK   68  A    between atoms: _147  and  _149
REMARK   69  A    between atoms: _149  and  _150
REMARK   70  A    between atoms: _149  and  _152
REMARK   71  A    between atoms: _152  and  _153
REMARK   72  A    between atoms: _156  and  _158
REMARK   73  A    between atoms: _158  and  _159
REMARK   74  A    between atoms: _158  and  _161
REMARK   75  A    between atoms: _161  and  _162
REMARK   76  A    between atoms: _165  and  _167
REMARK   77  A    between atoms: _167  and  _168
REMARK   78  A    between atoms: _167  and  _170
REMARK   79  A    between atoms: _173  and  _175
REMARK   80  A    between atoms: _175  and  _176
REMARK   81  A    between atoms: _175  and  _178
REMARK   82  A    between atoms: _178  and  _179
REMARK   83  A    between atoms: _182  and  _184
REMARK   84  A    between atoms: _184  and  _185
REMARK   85  A    between atoms: _184  and  _187
REMARK   86  A    between atoms: _187  and  _188
REMARK   87  A    between atoms: _191  and  _193
REMARK   88  A    between atoms: _193  and  _194
REMARK   89  A    between atoms: _196  and  _198
REMARK   90  A    between atoms: _198  and  _199
REMARK   91  A    between atoms: _198  and  _201
REMARK   92  A    between atoms: _201  and  _202
REMARK   93  A    between atoms: _205  and  _207
REMARK   94  A    between atoms: _207  and  _208
REMARK   95  A    between atoms: _210  and  _212
REMARK   96  A    between atoms: _212  and  _213
REMARK   97  A    between atoms: _212  and  _215
REMARK   98  A    between atoms: _215  and  _216
REMARK   99  A    between atoms: _216  and  _217
REMARK  100  A    between atoms: _219  and  _221
REMARK  101  A    between atoms: _221  and  _222
REMARK  102  A    between atoms: _221  and  _224
REMARK  103  A    between atoms: _224  and  _225
REMARK  104  A    between atoms: _228  and  _230
REMARK  105  A    between atoms: _230  and  _231
REMARK  106  A    between atoms: _230  and  _233
REMARK  107  A    between atoms: _233  and  _234
REMARK  108  A    between atoms: _237  and  _239
REMARK  109  A    between atoms: _239  and  _240
REMARK  110  A    between atoms: _239  and  _242
REMARK  111  A    between atoms: _242  and  _243
REMARK  112  A    between atoms: _246  and  _248
REMARK  113  A    between atoms: _248  and  _249
REMARK  114  A    between atoms: _248  and  _251
REMARK  115  A    between atoms: _251  and  _252
REMARK  116  A    between atoms: _257  and  _259
REMARK  117  A    between atoms: _259  and  _260
REMARK  118  A    between atoms: _259  and  _262
REMARK  119  A    between atoms: _262  and  _263
REMARK  120  A    between atoms: _268  and  _270
REMARK  121  A    between atoms: _270  and  _271
REMARK  122  A    between atoms: _270  and  _273
REMARK  123  A    between atoms: _273  and  _274
REMARK  124  A    between atoms: _277  and  _279
REMARK  125  A    between atoms: _279  and  _280
REMARK  126  A    between atoms: _282  and  _284
REMARK  127  A    between atoms: _284  and  _285
REMARK  128  A    between atoms: _284  and  _287
REMARK  129  A    between atoms: _287  and  _288
REMARK  130  A    between atoms: _291  and  _293
REMARK  131  A    between atoms: _293  and  _294
REMARK  132  A    between atoms: _293  and  _296
REMARK  133  A    between atoms: _296  and  _297
REMARK  134  A    between atoms: _300  and  _302
REMARK  135  A    between atoms: _302  and  _303
REMARK  136  A    between atoms: _306  and  _308
REMARK  137  A    between atoms: _308  and  _309
REMARK  138  A    between atoms: _308  and  _311
REMARK  139  A    between atoms: _311  and  _312
REMARK  140  A    between atoms: _312  and  _313
REMARK  141  A    between atoms: _313  and  _314
REMARK  142  A    between atoms: _314  and  _315
REMARK  143  A    between atoms: _319  and  _321
REMARK  144  A    between atoms: _321  and  _322
REMARK  145  A    between atoms: _321  and  _324
REMARK  146  A    between atoms: _324  and  _325
REMARK  147  A    between atoms: _327  and  _329
REMARK  148  A    between atoms: _329  and  _330
REMARK  149  A    between atoms: _332  and  _334
REMARK  150  A    between atoms: _334  and  _335
REMARK  151  A    between atoms: _334  and  _337
REMARK  152  A    between atoms: _337  and  _338
REMARK  153  A    between atoms: _341  and  _343
REMARK  154  A    between atoms: _343  and  _344
REMARK  155  A    between atoms: _343  and  _346
REMARK  156  A    between atoms: _346  and  _347
REMARK  157  A    between atoms: _350  and  _352
REMARK  158  A    between atoms: _352  and  _353
REMARK  159  A    between atoms: _355  and  _357
REMARK  160  A    between atoms: _357  and  _358
REMARK  161  A    between atoms: _357  and  _360
REMARK  162  A    between atoms: _360  and  _361
REMARK  163  A    between atoms: _367  and  _369
REMARK  164  A    between atoms: _369  and  _370
REMARK  165  A    between atoms: _372  and  _374
REMARK  166  A    between atoms: _374  and  _375
REMARK  167  A    between atoms: _374  and  _377
REMARK  168  A    between atoms: _380  and  _382
REMARK  169  A    between atoms: _382  and  _383
REMARK  170  A    between atoms: _385  and  _387
REMARK  171  A    between atoms: _387  and  _388
REMARK  172  A    between atoms: _387  and  _390
REMARK  173  A    between atoms: _390  and  _391
REMARK  174  A    between atoms: _397  and  _399
REMARK  175  A    between atoms: _399  and  _400
REMARK  176  A    between atoms: _399  and  _402
REMARK  177  A    between atoms: _402  and  _403
REMARK  178  A    between atoms: _408  and  _409
REMARK  179  A    between atoms: _411  and  _413
REMARK  180  A    between atoms: _413  and  _414
REMARK  181  A    between atoms: _413  and  _416
REMARK  182  A    between atoms: _416  and  _417
REMARK  183  A    between atoms: _419  and  _421
REMARK  184  A    between atoms: _421  and  _422
REMARK  185  A    between atoms: _425  and  _427
REMARK  186  A    between atoms: _427  and  _428
REMARK  187  A    between atoms: _427  and  _430
REMARK  188  A    between atoms: _433  and  _435
REMARK  189  A    between atoms: _435  and  _436
REMARK  190  A    between atoms: _435  and  _438
REMARK  191  A    between atoms: _438  and  _439
REMARK  192  A    between atoms: _442  and  _444
REMARK  193  A    between atoms: _444  and  _445
REMARK  194  A    between atoms: _444  and  _447
REMARK  195  A    between atoms: _447  and  _448
REMARK  196  A    between atoms: _451  and  _453
REMARK  197  A    between atoms: _453  and  _454
REMARK  198  A    between atoms: _453  and  _456
REMARK  199  A    between atoms: _456  and  _457
REMARK  200  A    between atoms: _457  and  _458
REMARK  201  A    between atoms: _458  and  _459
REMARK  202  A    between atoms: _459  and  _460
REMARK  203  A    between atoms: _464  and  _466
REMARK  204  A    between atoms: _466  and  _467
REMARK  205  A    between atoms: _466  and  _469
REMARK  206  A    between atoms: _469  and  _470
REMARK  207  A    between atoms: _475  and  _477
REMARK  208  A    between atoms: _477  and  _478
REMARK  209  A    between atoms: _480  and  _482
REMARK  210  A    between atoms: _482  and  _483
REMARK  211  A    between atoms: _482  and  _485
REMARK  212  A    between atoms: _485  and  _486
REMARK  213  A    between atoms: _489  and  _491
REMARK  214  A    between atoms: _491  and  _492
REMARK  215  A    between atoms: _491  and  _494
REMARK  216  A    between atoms: _494  and  _495
REMARK  217  A    between atoms: _495  and  _496
REMARK  218  A    between atoms: _496  and  _497
REMARK  219  A    between atoms: _497  and  _498
REMARK  220  A    between atoms: _502  and  _504
REMARK  221  A    between atoms: _504  and  _505
REMARK  222  A    between atoms: _504  and  _507
REMARK  223  A    between atoms: _510  and  _512
REMARK  224  A    between atoms: _512  and  _513
REMARK  225  A    between atoms: _512  and  _515
REMARK  226  A    between atoms: _515  and  _516
REMARK  227  A    between atoms: _516  and  _517
REMARK  228  A    between atoms: _517  and  _518
REMARK  229  A    between atoms: _518  and  _519
REMARK                            x       y       z     vdW  Elec       q    Type
REMARK                         _______ _______ _______ _____ _____    ______ ____
ROOT
ATOM      1  O   HOH     1      24.972  18.355  18.492  0.00  0.00    +0.000 OA
ENDROOT
TORSDOF 0
REMARK  Name = ../refined-set-2016/2qg0/2qg0_pocket.pdb
REMARK  229 active torsions:
REMARK  status: ('A' for Active; 'I' for Inactive)
REMARK    1  A    between atoms: _1  and  _3
REMARK    2  A    between atoms: _3  and  _4
REMARK    3  A    between atoms: _3  and  _6
REMARK    4  A    between atoms: _6  and  _7
REMARK    5  A    between atoms: _10  and  _12
REMARK    6  A    between atoms: _12  and  _13
REMARK    7  A    between atoms: _12  and  _15
REMARK    8  A    between atoms: _15  and  _16
REMARK    9  A    between atoms: _19  and  _21
REMARK   10  A    between atoms: _21  and  _22
REMARK   11  A    between atoms: _21  and  _24
REMARK   12  A    between atoms: _24  and  _25
REMARK   13  A    between atoms: _25  and  _26
REMARK   14  A    between atoms: _29  and  _31
REMARK   15  A    between atoms: _31  and  _32
REMARK   16  A    between atoms: _31  and  _34
REMARK   17  A    between atoms: _34  and  _35
REMARK   18  A    between atoms: _38  and  _40
REMARK   19  A    between atoms: _40  and  _41
REMARK   20  A    between atoms: _40  and  _43
REMARK   21  A    between atoms: _43  and  _44
REMARK   22  A    between atoms: _47  and  _49
REMARK   23  A    between atoms: _49  and  _50
REMARK   24  A    between atoms: _49  and  _52
REMARK   25  A    between atoms: _52  and  _53
REMARK   26  A    between atoms: _55  and  _57
REMARK   27  A    between atoms: _57  and  _58
REMARK   28  A    between atoms: _57  and  _60
REMARK   29  A    between atoms: _60  and  _61
REMARK   30  A    between atoms: _66  and  _68
REMARK   31  A    between atoms: _68  and  _69
REMARK   32  A    between atoms: _68  and  _71
REMARK   33  A    between atoms: _71  and  _72
REMARK   34  A    between atoms: _74  and  _76
REMARK   35  A    between atoms: _76  and  _77
REMARK   36  A    between atoms: _76  and  _79
REMARK   37  A    between atoms: _79  and  _80
REMARK   38  A    between atoms: _82  and  _84
REMARK   39  A    between atoms: _84  and  _85
REMARK   40  A    between atoms: _84  and  _87
REMARK   41  A    between atoms: _87  and  _88
REMARK   42  A    between atoms: _91  and  _93
REMARK   43  A    between atoms: _93  and  _94
REMARK   44  A    between atoms: _97  and  _99
REMARK   45  A    between atoms: _99  and  _100
REMARK   46  A    between atoms: _99  and  _102
REMARK   47  A    between atoms: _102  and  _103
REMARK   48  A    between atoms: _106  and  _108
REMARK   49  A    between atoms: _108  and  _109
REMARK   50  A    between atoms: _108  and  _111
REMARK   51  A    between atoms: _111  and  _112
REMARK   52  A    between atoms: _115  and  _117
REMARK   53  A    between atoms: _117  and  _118
REMARK   54  A    between atoms: _117  and  _120
REMARK   55  A    between atoms: _120  and  _121
REMARK   56  A    between atoms: _121  and  _122
REMARK   57  A    between atoms: _122  and  _123
REMARK   58  A    between atoms: _123  and  _124
REMARK   59  A    between atoms: _128  and  _130
REMARK   60  A    between atoms: _130  and  _131
REMARK   61  A    between atoms: _130  and  _133
REMARK   62  A    between atoms: _133  and  _134
REMARK   63  A    between atoms: _137  and  _139
REMARK   64  A    between atoms: _139  and  _140
REMARK   65  A    between atoms: _139  and  _142
REMARK   66  A    between atoms: _142  and  _143
REMARK   67  A    between atoms: _143  and  _144
REMARK   68  A    between atoms: _147  and  _149
REMARK   69  A    between atoms: _149  and  _150
REMARK   70  A    between atoms: _149  and  _152
REMARK   71  A    between atoms: _152  and  _153
REMARK   72  A    between atoms: _156  and  _158
REMARK   73  A    between atoms: _158  and  _159
REMARK   74  A    between atoms: _158  and  _161
REMARK   75  A    between atoms: _161  and  _162
REMARK   76  A    between atoms: _165  and  _167
REMARK   77  A    between atoms: _167  and  _168
REMARK   78  A    between atoms: _167  and  _170
REMARK   79  A    between atoms: _173  and  _175
REMARK   80  A    between atoms: _175  and  _176
REMARK   81  A    between atoms: _175  and  _178
REMARK   82  A    between atoms: _178  and  _179
REMARK   83  A    between atoms: _182  and  _184
REMARK   84  A    between atoms: _184  and  _185
REMARK   85  A    between atoms: _184  and  _187
REMARK   86  A    between atoms: _187  and  _188
REMARK   87  A    between atoms: _191  and  _193
REMARK   88  A    between atoms: _193  and  _194
REMARK   89  A    between atoms: _196  and  _198
REMARK   90  A    between atoms: _198  and  _199
REMARK   91  A    between atoms: _198  and  _201
REMARK   92  A    between atoms: _201  and  _202
REMARK   93  A    between atoms: _205  and  _207
REMARK   94  A    between atoms: _207  and  _208
REMARK   95  A    between atoms: _210  and  _212
REMARK   96  A    between atoms: _212  and  _213
REMARK   97  A    between atoms: _212  and  _215
REMARK   98  A    between atoms: _215  and  _216
REMARK   99  A    between atoms: _216  and  _217
REMARK  100  A    between atoms: _219  and  _221
REMARK  101  A    between atoms: _221  and  _222
REMARK  102  A    between atoms: _221  and  _224
REMARK  103  A    between atoms: _224  and  _225
REMARK  104  A    between atoms: _228  and  _230
REMARK  105  A    between atoms: _230  and  _231
REMARK  106  A    between atoms: _230  and  _233
REMARK  107  A    between atoms: _233  and  _234
REMARK  108  A    between atoms: _237  and  _239
REMARK  109  A    between atoms: _239  and  _240
REMARK  110  A    between atoms: _239  and  _242
REMARK  111  A    between atoms: _242  and  _243
REMARK  112  A    between atoms: _246  and  _248
REMARK  113  A    between atoms: _248  and  _249
REMARK  114  A    between atoms: _248  and  _251
REMARK  115  A    between atoms: _251  and  _252
REMARK  116  A    between atoms: _257  and  _259
REMARK  117  A    between atoms: _259  and  _260
REMARK  118  A    between atoms: _259  and  _262
REMARK  119  A    between atoms: _262  and  _263
REMARK  120  A    between atoms: _268  and  _270
REMARK  121  A    between atoms: _270  and  _271
REMARK  122  A    between atoms: _270  and  _273
REMARK  123  A    between atoms: _273  and  _274
REMARK  124  A    between atoms: _277  and  _279
REMARK  125  A    between atoms: _279  and  _280
REMARK  126  A    between atoms: _282  and  _284
REMARK  127  A    between atoms: _284  and  _285
REMARK  128  A    between atoms: _284  and  _287
REMARK  129  A    between atoms: _287  and  _288
REMARK  130  A    between atoms: _291  and  _293
REMARK  131  A    between atoms: _293  and  _294
REMARK  132  A    between atoms: _293  and  _296
REMARK  133  A    between atoms: _296  and  _297
REMARK  134  A    between atoms: _300  and  _302
REMARK  135  A    between atoms: _302  and  _303
REMARK  136  A    between atoms: _306  and  _308
REMARK  137  A    between atoms: _308  and  _309
REMARK  138  A    between atoms: _308  and  _311
REMARK  139  A    between atoms: _311  and  _312
REMARK  140  A    between atoms: _312  and  _313
REMARK  141  A    between atoms: _313  and  _314
REMARK  142  A    between atoms: _314  and  _315
REMARK  143  A    between atoms: _319  and  _321
REMARK  144  A    between atoms: _321  and  _322
REMARK  145  A    between atoms: _321  and  _324
REMARK  146  A    between atoms: _324  and  _325
REMARK  147  A    between atoms: _327  and  _329
REMARK  148  A    between atoms: _329  and  _330
REMARK  149  A    between atoms: _332  and  _334
REMARK  150  A    between atoms: _334  and  _335
REMARK  151  A    between atoms: _334  and  _337
REMARK  152  A    between atoms: _337  and  _338
REMARK  153  A    between atoms: _341  and  _343
REMARK  154  A    between atoms: _343  and  _344
REMARK  155  A    between atoms: _343  and  _346
REMARK  156  A    between atoms: _346  and  _347
REMARK  157  A    between atoms: _350  and  _352
REMARK  158  A    between atoms: _352  and  _353
REMARK  159  A    between atoms: _355  and  _357
REMARK  160  A    between atoms: _357  and  _358
REMARK  161  A    between atoms: _357  and  _360
REMARK  162  A    between atoms: _360  and  _361
REMARK  163  A    between atoms: _367  and  _369
REMARK  164  A    between atoms: _369  and  _370
REMARK  165  A    between atoms: _372  and  _374
REMARK  166  A    between atoms: _374  and  _375
REMARK  167  A    between atoms: _374  and  _377
REMARK  168  A    between atoms: _380  and  _382
REMARK  169  A    between atoms: _382  and  _383
REMARK  170  A    between atoms: _385  and  _387
REMARK  171  A    between atoms: _387  and  _388
REMARK  172  A    between atoms: _387  and  _390
REMARK  173  A    between atoms: _390  and  _391
REMARK  174  A    between atoms: _397  and  _399
REMARK  175  A    between atoms: _399  and  _400
REMARK  176  A    between atoms: _399  and  _402
REMARK  177  A    between atoms: _402  and  _403
REMARK  178  A    between atoms: _408  and  _409
REMARK  179  A    between atoms: _411  and  _413
REMARK  180  A    between atoms: _413  and  _414
REMARK  181  A    between atoms: _413  and  _416
REMARK  182  A    between atoms: _416  and  _417
REMARK  183  A    between atoms: _419  and  _421
REMARK  184  A    between atoms: _421  and  _422
REMARK  185  A    between atoms: _425  and  _427
REMARK  186  A    between atoms: _427  and  _428
REMARK  187  A    between atoms: _427  and  _430
REMARK  188  A    between atoms: _433  and  _435
REMARK  189  A    between atoms: _435  and  _436
REMARK  190  A    between atoms: _435  and  _438
REMARK  191  A    between atoms: _438  and  _439
REMARK  192  A    between atoms: _442  and  _444
REMARK  193  A    between atoms: _444  and  _445
REMARK  194  A    between atoms: _444  and  _447
REMARK  195  A    between atoms: _447  and  _448
REMARK  196  A    between atoms: _451  and  _453
REMARK  197  A    between atoms: _453  and  _454
REMARK  198  A    between atoms: _453  and  _456
REMARK  199  A    between atoms: _456  and  _457
REMARK  200  A    between atoms: _457  and  _458
REMARK  201  A    between atoms: _458  and  _459
REMARK  202  A    between atoms: _459  and  _460
REMARK  203  A    between atoms: _464  and  _466
REMARK  204  A    between atoms: _466  and  _467
REMARK  205  A    between atoms: _466  and  _469
REMARK  206  A    between atoms: _469  and  _470
REMARK  207  A    between atoms: _475  and  _477
REMARK  208  A    between atoms: _477  and  _478
REMARK  209  A    between atoms: _480  and  _482
REMARK  210  A    between atoms: _482  and  _483
REMARK  211  A    between atoms: _482  and  _485
REMARK  212  A    between atoms: _485  and  _486
REMARK  213  A    between atoms: _489  and  _491
REMARK  214  A    between atoms: _491  and  _492
REMARK  215  A    between atoms: _491  and  _494
REMARK  216  A    between atoms: _494  and  _495
REMARK  217  A    between atoms: _495  and  _496
REMARK  218  A    between atoms: _496  and  _497
REMARK  219  A    between atoms: _497  and  _498
REMARK  220  A    between atoms: _502  and  _504
REMARK  221  A    between atoms: _504  and  _505
REMARK  222  A    between atoms: _504  and  _507
REMARK  223  A    between atoms: _510  and  _512
REMARK  224  A    between atoms: _512  and  _513
REMARK  225  A    between atoms: _512  and  _515
REMARK  226  A    between atoms: _515  and  _516
REMARK  227  A    between atoms: _516  and  _517
REMARK  228  A    between atoms: _517  and  _518
REMARK  229  A    between atoms: _518  and  _519
REMARK                            x       y       z     vdW  Elec       q    Type
REMARK                         _______ _______ _______ _____ _____    ______ ____
ROOT
ATOM      1  O   HOH     1      17.456  19.001  13.647  0.00  0.00    +0.000 OA
ENDROOT
TORSDOF 0
REMARK  Name = ../refined-set-2016/2qg0/2qg0_pocket.pdb
REMARK  229 active torsions:
REMARK  status: ('A' for Active; 'I' for Inactive)
REMARK    1  A    between atoms: _1  and  _3
REMARK    2  A    between atoms: _3  and  _4
REMARK    3  A    between atoms: _3  and  _6
REMARK    4  A    between atoms: _6  and  _7
REMARK    5  A    between atoms: _10  and  _12
REMARK    6  A    between atoms: _12  and  _13
REMARK    7  A    between atoms: _12  and  _15
REMARK    8  A    between atoms: _15  and  _16
REMARK    9  A    between atoms: _19  and  _21
REMARK   10  A    between atoms: _21  and  _22
REMARK   11  A    between atoms: _21  and  _24
REMARK   12  A    between atoms: _24  and  _25
REMARK   13  A    between atoms: _25  and  _26
REMARK   14  A    between atoms: _29  and  _31
REMARK   15  A    between atoms: _31  and  _32
REMARK   16  A    between atoms: _31  and  _34
REMARK   17  A    between atoms: _34  and  _35
REMARK   18  A    between atoms: _38  and  _40
REMARK   19  A    between atoms: _40  and  _41
REMARK   20  A    between atoms: _40  and  _43
REMARK   21  A    between atoms: _43  and  _44
REMARK   22  A    between atoms: _47  and  _49
REMARK   23  A    between atoms: _49  and  _50
REMARK   24  A    between atoms: _49  and  _52
REMARK   25  A    between atoms: _52  and  _53
REMARK   26  A    between atoms: _55  and  _57
REMARK   27  A    between atoms: _57  and  _58
REMARK   28  A    between atoms: _57  and  _60
REMARK   29  A    between atoms: _60  and  _61
REMARK   30  A    between atoms: _66  and  _68
REMARK   31  A    between atoms: _68  and  _69
REMARK   32  A    between atoms: _68  and  _71
REMARK   33  A    between atoms: _71  and  _72
REMARK   34  A    between atoms: _74  and  _76
REMARK   35  A    between atoms: _76  and  _77
REMARK   36  A    between atoms: _76  and  _79
REMARK   37  A    between atoms: _79  and  _80
REMARK   38  A    between atoms: _82  and  _84
REMARK   39  A    between atoms: _84  and  _85
REMARK   40  A    between atoms: _84  and  _87
REMARK   41  A    between atoms: _87  and  _88
REMARK   42  A    between atoms: _91  and  _93
REMARK   43  A    between atoms: _93  and  _94
REMARK   44  A    between atoms: _97  and  _99
REMARK   45  A    between atoms: _99  and  _100
REMARK   46  A    between atoms: _99  and  _102
REMARK   47  A    between atoms: _102  and  _103
REMARK   48  A    between atoms: _106  and  _108
REMARK   49  A    between atoms: _108  and  _109
REMARK   50  A    between atoms: _108  and  _111
REMARK   51  A    between atoms: _111  and  _112
REMARK   52  A    between atoms: _115  and  _117
REMARK   53  A    between atoms: _117  and  _118
REMARK   54  A    between atoms: _117  and  _120
REMARK   55  A    between atoms: _120  and  _121
REMARK   56  A    between atoms: _121  and  _122
REMARK   57  A    between atoms: _122  and  _123
REMARK   58  A    between atoms: _123  and  _124
REMARK   59  A    between atoms: _128  and  _130
REMARK   60  A    between atoms: _130  and  _131
REMARK   61  A    between atoms: _130  and  _133
REMARK   62  A    between atoms: _133  and  _134
REMARK   63  A    between atoms: _137  and  _139
REMARK   64  A    between atoms: _139  and  _140
REMARK   65  A    between atoms: _139  and  _142
REMARK   66  A    between atoms: _142  and  _143
REMARK   67  A    between atoms: _143  and  _144
REMARK   68  A    between atoms: _147  and  _149
REMARK   69  A    between atoms: _149  and  _150
REMARK   70  A    between atoms: _149  and  _152
REMARK   71  A    between atoms: _152  and  _153
REMARK   72  A    between atoms: _156  and  _158
REMARK   73  A    between atoms: _158  and  _159
REMARK   74  A    between atoms: _158  and  _161
REMARK   75  A    between atoms: _161  and  _162
REMARK   76  A    between atoms: _165  and  _167
REMARK   77  A    between atoms: _167  and  _168
REMARK   78  A    between atoms: _167  and  _170
REMARK   79  A    between atoms: _173  and  _175
REMARK   80  A    between atoms: _175  and  _176
REMARK   81  A    between atoms: _175  and  _178
REMARK   82  A    between atoms: _178  and  _179
REMARK   83  A    between atoms: _182  and  _184
REMARK   84  A    between atoms: _184  and  _185
REMARK   85  A    between atoms: _184  and  _187
REMARK   86  A    between atoms: _187  and  _188
REMARK   87  A    between atoms: _191  and  _193
REMARK   88  A    between atoms: _193  and  _194
REMARK   89  A    between atoms: _196  and  _198
REMARK   90  A    between atoms: _198  and  _199
REMARK   91  A    between atoms: _198  and  _201
REMARK   92  A    between atoms: _201  and  _202
REMARK   93  A    between atoms: _205  and  _207
REMARK   94  A    between atoms: _207  and  _208
REMARK   95  A    between atoms: _210  and  _212
REMARK   96  A    between atoms: _212  and  _213
REMARK   97  A    between atoms: _212  and  _215
REMARK   98  A    between atoms: _215  and  _216
REMARK   99  A    between atoms: _216  and  _217
REMARK  100  A    between atoms: _219  and  _221
REMARK  101  A    between atoms: _221  and  _222
REMARK  102  A    between atoms: _221  and  _224
REMARK  103  A    between atoms: _224  and  _225
REMARK  104  A    between atoms: _228  and  _230
REMARK  105  A    between atoms: _230  and  _231
REMARK  106  A    between atoms: _230  and  _233
REMARK  107  A    between atoms: _233  and  _234
REMARK  108  A    between atoms: _237  and  _239
REMARK  109  A    between atoms: _239  and  _240
REMARK  110  A    between atoms: _239  and  _242
REMARK  111  A    between atoms: _242  and  _243
REMARK  112  A    between atoms: _246  and  _248
REMARK  113  A    between atoms: _248  and  _249
REMARK  114  A    between atoms: _248  and  _251
REMARK  115  A    between atoms: _251  and  _252
REMARK  116  A    between atoms: _257  and  _259
REMARK  117  A    between atoms: _259  and  _260
REMARK  118  A    between atoms: _259  and  _262
REMARK  119  A    between atoms: _262  and  _263
REMARK  120  A    between atoms: _268  and  _270
REMARK  121  A    between atoms: _270  and  _271
REMARK  122  A    between atoms: _270  and  _273
REMARK  123  A    between atoms: _273  and  _274
REMARK  124  A    between atoms: _277  and  _279
REMARK  125  A    between atoms: _279  and  _280
REMARK  126  A    between atoms: _282  and  _284
REMARK  127  A    between atoms: _284  and  _285
REMARK  128  A    between atoms: _284  and  _287
REMARK  129  A    between atoms: _287  and  _288
REMARK  130  A    between atoms: _291  and  _293
REMARK  131  A    between atoms: _293  and  _294
REMARK  132  A    between atoms: _293  and  _296
REMARK  133  A    between atoms: _296  and  _297
REMARK  134  A    between atoms: _300  and  _302
REMARK  135  A    between atoms: _302  and  _303
REMARK  136  A    between atoms: _306  and  _308
REMARK  137  A    between atoms: _308  and  _309
REMARK  138  A    between atoms: _308  and  _311
REMARK  139  A    between atoms: _311  and  _312
REMARK  140  A    between atoms: _312  and  _313
REMARK  141  A    between atoms: _313  and  _314
REMARK  142  A    between atoms: _314  and  _315
REMARK  143  A    between atoms: _319  and  _321
REMARK  144  A    between atoms: _321  and  _322
REMARK  145  A    between atoms: _321  and  _324
REMARK  146  A    between atoms: _324  and  _325
REMARK  147  A    between atoms: _327  and  _329
REMARK  148  A    between atoms: _329  and  _330
REMARK  149  A    between atoms: _332  and  _334
REMARK  150  A    between atoms: _334  and  _335
REMARK  151  A    between atoms: _334  and  _337
REMARK  152  A    between atoms: _337  and  _338
REMARK  153  A    between atoms: _341  and  _343
REMARK  154  A    between atoms: _343  and  _344
REMARK  155  A    between atoms: _343  and  _346
REMARK  156  A    between atoms: _346  and  _347
REMARK  157  A    between atoms: _350  and  _352
REMARK  158  A    between atoms: _352  and  _353
REMARK  159  A    between atoms: _355  and  _357
REMARK  160  A    between atoms: _357  and  _358
REMARK  161  A    between atoms: _357  and  _360
REMARK  162  A    between atoms: _360  and  _361
REMARK  163  A    between atoms: _367  and  _369
REMARK  164  A    between atoms: _369  and  _370
REMARK  165  A    between atoms: _372  and  _374
REMARK  166  A    between atoms: _374  and  _375
REMARK  167  A    between atoms: _374  and  _377
REMARK  168  A    between atoms: _380  and  _382
REMARK  169  A    between atoms: _382  and  _383
REMARK  170  A    between atoms: _385  and  _387
REMARK  171  A    between atoms: _387  and  _388
REMARK  172  A    between atoms: _387  and  _390
REMARK  173  A    between atoms: _390  and  _391
REMARK  174  A    between atoms: _397  and  _399
REMARK  175  A    between atoms: _399  and  _400
REMARK  176  A    between atoms: _399  and  _402
REMARK  177  A    between atoms: _402  and  _403
REMARK  178  A    between atoms: _408  and  _409
REMARK  179  A    between atoms: _411  and  _413
REMARK  180  A    between atoms: _413  and  _414
REMARK  181  A    between atoms: _413  and  _416
REMARK  182  A    between atoms: _416  and  _417
REMARK  183  A    between atoms: _419  and  _421
REMARK  184  A    between atoms: _421  and  _422
REMARK  185  A    between atoms: _425  and  _427
REMARK  186  A    between atoms: _427  and  _428
REMARK  187  A    between atoms: _427  and  _430
REMARK  188  A    between atoms: _433  and  _435
REMARK  189  A    between atoms: _435  and  _436
REMARK  190  A    between atoms: _435  and  _438
REMARK  191  A    between atoms: _438  and  _439
REMARK  192  A    between atoms: _442  and  _444
REMARK  193  A    between atoms: _444  and  _445
REMARK  194  A    between atoms: _444  and  _447
REMARK  195  A    between atoms: _447  and  _448
REMARK  196  A    between atoms: _451  and  _453
REMARK  197  A    between atoms: _453  and  _454
REMARK  198  A    between atoms: _453  and  _456
REMARK  199  A    between atoms: _456  and  _457
REMARK  200  A    between atoms: _457  and  _458
REMARK  201  A    between atoms: _458  and  _459
REMARK  202  A    between atoms: _459  and  _460
REMARK  203  A    between atoms: _464  and  _466
REMARK  204  A    between atoms: _466  and  _467
REMARK  205  A    between atoms: _466  and  _469
REMARK  206  A    between atoms: _469  and  _470
REMARK  207  A    between atoms: _475  and  _477
REMARK  208  A    between atoms: _477  and  _478
REMARK  209  A    between atoms: _480  and  _482
REMARK  210  A    between atoms: _482  and  _483
REMARK  211  A    between atoms: _482  and  _485
REMARK  212  A    between atoms: _485  and  _486
REMARK  213  A    between atoms: _489  and  _491
REMARK  214  A    between atoms: _491  and  _492
REMARK  215  A    between atoms: _491  and  _494
REMARK  216  A    between atoms: _494  and  _495
REMARK  217  A    between atoms: _495  and  _496
REMARK  218  A    between atoms: _496  and  _497
REMARK  219  A    between atoms: _497  and  _498
REMARK  220  A    between atoms: _502  and  _504
REMARK  221  A    between atoms: _504  and  _505
REMARK  222  A    between atoms: _504  and  _507
REMARK  223  A    between atoms: _510  and  _512
REMARK  224  A    between atoms: _512  and  _513
REMARK  225  A    between atoms: _512  and  _515
REMARK  226  A    between atoms: _515  and  _516
REMARK  227  A    between atoms: _516  and  _517
REMARK  228  A    between atoms: _517  and  _518
REMARK  229  A    between atoms: _518  and  _519
REMARK                            x       y       z     vdW  Elec       q    Type
REMARK                         _______ _______ _______ _____ _____    ______ ____
ROOT
ATOM      1  O   HOH     1      17.112  20.493  10.727  0.00  0.00    +0.000 OA
ENDROOT
TORSDOF 0
REMARK  Name = ../refined-set-2016/2qg0/2qg0_pocket.pdb
REMARK  229 active torsions:
REMARK  status: ('A' for Active; 'I' for Inactive)
REMARK    1  A    between atoms: _1  and  _3
REMARK    2  A    between atoms: _3  and  _4
REMARK    3  A    between atoms: _3  and  _6
REMARK    4  A    between atoms: _6  and  _7
REMARK    5  A    between atoms: _10  and  _12
REMARK    6  A    between atoms: _12  and  _13
REMARK    7  A    between atoms: _12  and  _15
REMARK    8  A    between atoms: _15  and  _16
REMARK    9  A    between atoms: _19  and  _21
REMARK   10  A    between atoms: _21  and  _22
REMARK   11  A    between atoms: _21  and  _24
REMARK   12  A    between atoms: _24  and  _25
REMARK   13  A    between atoms: _25  and  _26
REMARK   14  A    between atoms: _29  and  _31
REMARK   15  A    between atoms: _31  and  _32
REMARK   16  A    between atoms: _31  and  _34
REMARK   17  A    between atoms: _34  and  _35
REMARK   18  A    between atoms: _38  and  _40
REMARK   19  A    between atoms: _40  and  _41
REMARK   20  A    between atoms: _40  and  _43
REMARK   21  A    between atoms: _43  and  _44
REMARK   22  A    between atoms: _47  and  _49
REMARK   23  A    between atoms: _49  and  _50
REMARK   24  A    between atoms: _49  and  _52
REMARK   25  A    between atoms: _52  and  _53
REMARK   26  A    between atoms: _55  and  _57
REMARK   27  A    between atoms: _57  and  _58
REMARK   28  A    between atoms: _57  and  _60
REMARK   29  A    between atoms: _60  and  _61
REMARK   30  A    between atoms: _66  and  _68
REMARK   31  A    between atoms: _68  and  _69
REMARK   32  A    between atoms: _68  and  _71
REMARK   33  A    between atoms: _71  and  _72
REMARK   34  A    between atoms: _74  and  _76
REMARK   35  A    between atoms: _76  and  _77
REMARK   36  A    between atoms: _76  and  _79
REMARK   37  A    between atoms: _79  and  _80
REMARK   38  A    between atoms: _82  and  _84
REMARK   39  A    between atoms: _84  and  _85
REMARK   40  A    between atoms: _84  and  _87
REMARK   41  A    between atoms: _87  and  _88
REMARK   42  A    between atoms: _91  and  _93
REMARK   43  A    between atoms: _93  and  _94
REMARK   44  A    between atoms: _97  and  _99
REMARK   45  A    between atoms: _99  and  _100
REMARK   46  A    between atoms: _99  and  _102
REMARK   47  A    between atoms: _102  and  _103
REMARK   48  A    between atoms: _106  and  _108
REMARK   49  A    between atoms: _108  and  _109
REMARK   50  A    between atoms: _108  and  _111
REMARK   51  A    between atoms: _111  and  _112
REMARK   52  A    between atoms: _115  and  _117
REMARK   53  A    between atoms: _117  and  _118
REMARK   54  A    between atoms: _117  and  _120
REMARK   55  A    between atoms: _120  and  _121
REMARK   56  A    between atoms: _121  and  _122
REMARK   57  A    between atoms: _122  and  _123
REMARK   58  A    between atoms: _123  and  _124
REMARK   59  A    between atoms: _128  and  _130
REMARK   60  A    between atoms: _130  and  _131
REMARK   61  A    between atoms: _130  and  _133
REMARK   62  A    between atoms: _133  and  _134
REMARK   63  A    between atoms: _137  and  _139
REMARK   64  A    between atoms: _139  and  _140
REMARK   65  A    between atoms: _139  and  _142
REMARK   66  A    between atoms: _142  and  _143
REMARK   67  A    between atoms: _143  and  _144
REMARK   68  A    between atoms: _147  and  _149
REMARK   69  A    between atoms: _149  and  _150
REMARK   70  A    between atoms: _149  and  _152
REMARK   71  A    between atoms: _152  and  _153
REMARK   72  A    between atoms: _156  and  _158
REMARK   73  A    between atoms: _158  and  _159
REMARK   74  A    between atoms: _158  and  _161
REMARK   75  A    between atoms: _161  and  _162
REMARK   76  A    between atoms: _165  and  _167
REMARK   77  A    between atoms: _167  and  _168
REMARK   78  A    between atoms: _167  and  _170
REMARK   79  A    between atoms: _173  and  _175
REMARK   80  A    between atoms: _175  and  _176
REMARK   81  A    between atoms: _175  and  _178
REMARK   82  A    between atoms: _178  and  _179
REMARK   83  A    between atoms: _182  and  _184
REMARK   84  A    between atoms: _184  and  _185
REMARK   85  A    between atoms: _184  and  _187
REMARK   86  A    between atoms: _187  and  _188
REMARK   87  A    between atoms: _191  and  _193
REMARK   88  A    between atoms: _193  and  _194
REMARK   89  A    between atoms: _196  and  _198
REMARK   90  A    between atoms: _198  and  _199
REMARK   91  A    between atoms: _198  and  _201
REMARK   92  A    between atoms: _201  and  _202
REMARK   93  A    between atoms: _205  and  _207
REMARK   94  A    between atoms: _207  and  _208
REMARK   95  A    between atoms: _210  and  _212
REMARK   96  A    between atoms: _212  and  _213
REMARK   97  A    between atoms: _212  and  _215
REMARK   98  A    between atoms: _215  and  _216
REMARK   99  A    between atoms: _216  and  _217
REMARK  100  A    between atoms: _219  and  _221
REMARK  101  A    between atoms: _221  and  _222
REMARK  102  A    between atoms: _221  and  _224
REMARK  103  A    between atoms: _224  and  _225
REMARK  104  A    between atoms: _228  and  _230
REMARK  105  A    between atoms: _230  and  _231
REMARK  106  A    between atoms: _230  and  _233
REMARK  107  A    between atoms: _233  and  _234
REMARK  108  A    between atoms: _237  and  _239
REMARK  109  A    between atoms: _239  and  _240
REMARK  110  A    between atoms: _239  and  _242
REMARK  111  A    between atoms: _242  and  _243
REMARK  112  A    between atoms: _246  and  _248
REMARK  113  A    between atoms: _248  and  _249
REMARK  114  A    between atoms: _248  and  _251
REMARK  115  A    between atoms: _251  and  _252
REMARK  116  A    between atoms: _257  and  _259
REMARK  117  A    between atoms: _259  and  _260
REMARK  118  A    between atoms: _259  and  _262
REMARK  119  A    between atoms: _262  and  _263
REMARK  120  A    between atoms: _268  and  _270
REMARK  121  A    between atoms: _270  and  _271
REMARK  122  A    between atoms: _270  and  _273
REMARK  123  A    between atoms: _273  and  _274
REMARK  124  A    between atoms: _277  and  _279
REMARK  125  A    between atoms: _279  and  _280
REMARK  126  A    between atoms: _282  and  _284
REMARK  127  A    between atoms: _284  and  _285
REMARK  128  A    between atoms: _284  and  _287
REMARK  129  A    between atoms: _287  and  _288
REMARK  130  A    between atoms: _291  and  _293
REMARK  131  A    between atoms: _293  and  _294
REMARK  132  A    between atoms: _293  and  _296
REMARK  133  A    between atoms: _296  and  _297
REMARK  134  A    between atoms: _300  and  _302
REMARK  135  A    between atoms: _302  and  _303
REMARK  136  A    between atoms: _306  and  _308
REMARK  137  A    between atoms: _308  and  _309
REMARK  138  A    between atoms: _308  and  _311
REMARK  139  A    between atoms: _311  and  _312
REMARK  140  A    between atoms: _312  and  _313
REMARK  141  A    between atoms: _313  and  _314
REMARK  142  A    between atoms: _314  and  _315
REMARK  143  A    between atoms: _319  and  _321
REMARK  144  A    between atoms: _321  and  _322
REMARK  145  A    between atoms: _321  and  _324
REMARK  146  A    between atoms: _324  and  _325
REMARK  147  A    between atoms: _327  and  _329
REMARK  148  A    between atoms: _329  and  _330
REMARK  149  A    between atoms: _332  and  _334
REMARK  150  A    between atoms: _334  and  _335
REMARK  151  A    between atoms: _334  and  _337
REMARK  152  A    between atoms: _337  and  _338
REMARK  153  A    between atoms: _341  and  _343
REMARK  154  A    between atoms: _343  and  _344
REMARK  155  A    between atoms: _343  and  _346
REMARK  156  A    between atoms: _346  and  _347
REMARK  157  A    between atoms: _350  and  _352
REMARK  158  A    between atoms: _352  and  _353
REMARK  159  A    between atoms: _355  and  _357
REMARK  160  A    between atoms: _357  and  _358
REMARK  161  A    between atoms: _357  and  _360
REMARK  162  A    between atoms: _360  and  _361
REMARK  163  A    between atoms: _367  and  _369
REMARK  164  A    between atoms: _369  and  _370
REMARK  165  A    between atoms: _372  and  _374
REMARK  166  A    between atoms: _374  and  _375
REMARK  167  A    between atoms: _374  and  _377
REMARK  168  A    between atoms: _380  and  _382
REMARK  169  A    between atoms: _382  and  _383
REMARK  170  A    between atoms: _385  and  _387
REMARK  171  A    between atoms: _387  and  _388
REMARK  172  A    between atoms: _387  and  _390
REMARK  173  A    between atoms: _390  and  _391
REMARK  174  A    between atoms: _397  and  _399
REMARK  175  A    between atoms: _399  and  _400
REMARK  176  A    between atoms: _399  and  _402
REMARK  177  A    between atoms: _402  and  _403
REMARK  178  A    between atoms: _408  and  _409
REMARK  179  A    between atoms: _411  and  _413
REMARK  180  A    between atoms: _413  and  _414
REMARK  181  A    between atoms: _413  and  _416
REMARK  182  A    between atoms: _416  and  _417
REMARK  183  A    between atoms: _419  and  _421
REMARK  184  A    between atoms: _421  and  _422
REMARK  185  A    between atoms: _425  and  _427
REMARK  186  A    between atoms: _427  and  _428
REMARK  187  A    between atoms: _427  and  _430
REMARK  188  A    between atoms: _433  and  _435
REMARK  189  A    between atoms: _435  and  _436
REMARK  190  A    between atoms: _435  and  _438
REMARK  191  A    between atoms: _438  and  _439
REMARK  192  A    between atoms: _442  and  _444
REMARK  193  A    between atoms: _444  and  _445
REMARK  194  A    between atoms: _444  and  _447
REMARK  195  A    between atoms: _447  and  _448
REMARK  196  A    between atoms: _451  and  _453
REMARK  197  A    between atoms: _453  and  _454
REMARK  198  A    between atoms: _453  and  _456
REMARK  199  A    between atoms: _456  and  _457
REMARK  200  A    between atoms: _457  and  _458
REMARK  201  A    between atoms: _458  and  _459
REMARK  202  A    between atoms: _459  and  _460
REMARK  203  A    between atoms: _464  and  _466
REMARK  204  A    between atoms: _466  and  _467
REMARK  205  A    between atoms: _466  and  _469
REMARK  206  A    between atoms: _469  and  _470
REMARK  207  A    between atoms: _475  and  _477
REMARK  208  A    between atoms: _477  and  _478
REMARK  209  A    between atoms: _480  and  _482
REMARK  210  A    between atoms: _482  and  _483
REMARK  211  A    between atoms: _482  and  _485
REMARK  212  A    between atoms: _485  and  _486
REMARK  213  A    between atoms: _489  and  _491
REMARK  214  A    between atoms: _491  and  _492
REMARK  215  A    between atoms: _491  and  _494
REMARK  216  A    between atoms: _494  and  _495
REMARK  217  A    between atoms: _495  and  _496
REMARK  218  A    between atoms: _496  and  _497
REMARK  219  A    between atoms: _497  and  _498
REMARK  220  A    between atoms: _502  and  _504
REMARK  221  A    between atoms: _504  and  _505
REMARK  222  A    between atoms: _504  and  _507
REMARK  223  A    between atoms: _510  and  _512
REMARK  224  A    between atoms: _512  and  _513
REMARK  225  A    between atoms: _512  and  _515
REMARK  226  A    between atoms: _515  and  _516
REMARK  227  A    between atoms: _516  and  _517
REMARK  228  A    between atoms: _517  and  _518
REMARK  229  A    between atoms: _518  and  _519
REMARK                            x       y       z     vdW  Elec       q    Type
REMARK                         _______ _______ _______ _____ _____    ______ ____
ROOT
ATOM      1  O   HOH     1      16.900  17.436   8.395  0.00  0.00    +0.000 OA
ENDROOT
TORSDOF 0
REMARK  Name = ../refined-set-2016/2qg0/2qg0_pocket.pdb
REMARK  229 active torsions:
REMARK  status: ('A' for Active; 'I' for Inactive)
REMARK    1  A    between atoms: _1  and  _3
REMARK    2  A    between atoms: _3  and  _4
REMARK    3  A    between atoms: _3  and  _6
REMARK    4  A    between atoms: _6  and  _7
REMARK    5  A    between atoms: _10  and  _12
REMARK    6  A    between atoms: _12  and  _13
REMARK    7  A    between atoms: _12  and  _15
REMARK    8  A    between atoms: _15  and  _16
REMARK    9  A    between atoms: _19  and  _21
REMARK   10  A    between atoms: _21  and  _22
REMARK   11  A    between atoms: _21  and  _24
REMARK   12  A    between atoms: _24  and  _25
REMARK   13  A    between atoms: _25  and  _26
REMARK   14  A    between atoms: _29  and  _31
REMARK   15  A    between atoms: _31  and  _32
REMARK   16  A    between atoms: _31  and  _34
REMARK   17  A    between atoms: _34  and  _35
REMARK   18  A    between atoms: _38  and  _40
REMARK   19  A    between atoms: _40  and  _41
REMARK   20  A    between atoms: _40  and  _43
REMARK   21  A    between atoms: _43  and  _44
REMARK   22  A    between atoms: _47  and  _49
REMARK   23  A    between atoms: _49  and  _50
REMARK   24  A    between atoms: _49  and  _52
REMARK   25  A    between atoms: _52  and  _53
REMARK   26  A    between atoms: _55  and  _57
REMARK   27  A    between atoms: _57  and  _58
REMARK   28  A    between atoms: _57  and  _60
REMARK   29  A    between atoms: _60  and  _61
REMARK   30  A    between atoms: _66  and  _68
REMARK   31  A    between atoms: _68  and  _69
REMARK   32  A    between atoms: _68  and  _71
REMARK   33  A    between atoms: _71  and  _72
REMARK   34  A    between atoms: _74  and  _76
REMARK   35  A    between atoms: _76  and  _77
REMARK   36  A    between atoms: _76  and  _79
REMARK   37  A    between atoms: _79  and  _80
REMARK   38  A    between atoms: _82  and  _84
REMARK   39  A    between atoms: _84  and  _85
REMARK   40  A    between atoms: _84  and  _87
REMARK   41  A    between atoms: _87  and  _88
REMARK   42  A    between atoms: _91  and  _93
REMARK   43  A    between atoms: _93  and  _94
REMARK   44  A    between atoms: _97  and  _99
REMARK   45  A    between atoms: _99  and  _100
REMARK   46  A    between atoms: _99  and  _102
REMARK   47  A    between atoms: _102  and  _103
REMARK   48  A    between atoms: _106  and  _108
REMARK   49  A    between atoms: _108  and  _109
REMARK   50  A    between atoms: _108  and  _111
REMARK   51  A    between atoms: _111  and  _112
REMARK   52  A    between atoms: _115  and  _117
REMARK   53  A    between atoms: _117  and  _118
REMARK   54  A    between atoms: _117  and  _120
REMARK   55  A    between atoms: _120  and  _121
REMARK   56  A    between atoms: _121  and  _122
REMARK   57  A    between atoms: _122  and  _123
REMARK   58  A    between atoms: _123  and  _124
REMARK   59  A    between atoms: _128  and  _130
REMARK   60  A    between atoms: _130  and  _131
REMARK   61  A    between atoms: _130  and  _133
REMARK   62  A    between atoms: _133  and  _134
REMARK   63  A    between atoms: _137  and  _139
REMARK   64  A    between atoms: _139  and  _140
REMARK   65  A    between atoms: _139  and  _142
REMARK   66  A    between atoms: _142  and  _143
REMARK   67  A    between atoms: _143  and  _144
REMARK   68  A    between atoms: _147  and  _149
REMARK   69  A    between atoms: _149  and  _150
REMARK   70  A    between atoms: _149  and  _152
REMARK   71  A    between atoms: _152  and  _153
REMARK   72  A    between atoms: _156  and  _158
REMARK   73  A    between atoms: _158  and  _159
REMARK   74  A    between atoms: _158  and  _161
REMARK   75  A    between atoms: _161  and  _162
REMARK   76  A    between atoms: _165  and  _167
REMARK   77  A    between atoms: _167  and  _168
REMARK   78  A    between atoms: _167  and  _170
REMARK   79  A    between atoms: _173  and  _175
REMARK   80  A    between atoms: _175  and  _176
REMARK   81  A    between atoms: _175  and  _178
REMARK   82  A    between atoms: _178  and  _179
REMARK   83  A    between atoms: _182  and  _184
REMARK   84  A    between atoms: _184  and  _185
REMARK   85  A    between atoms: _184  and  _187
REMARK   86  A    between atoms: _187  and  _188
REMARK   87  A    between atoms: _191  and  _193
REMARK   88  A    between atoms: _193  and  _194
REMARK   89  A    between atoms: _196  and  _198
REMARK   90  A    between atoms: _198  and  _199
REMARK   91  A    between atoms: _198  and  _201
REMARK   92  A    between atoms: _201  and  _202
REMARK   93  A    between atoms: _205  and  _207
REMARK   94  A    between atoms: _207  and  _208
REMARK   95  A    between atoms: _210  and  _212
REMARK   96  A    between atoms: _212  and  _213
REMARK   97  A    between atoms: _212  and  _215
REMARK   98  A    between atoms: _215  and  _216
REMARK   99  A    between atoms: _216  and  _217
REMARK  100  A    between atoms: _219  and  _221
REMARK  101  A    between atoms: _221  and  _222
REMARK  102  A    between atoms: _221  and  _224
REMARK  103  A    between atoms: _224  and  _225
REMARK  104  A    between atoms: _228  and  _230
REMARK  105  A    between atoms: _230  and  _231
REMARK  106  A    between atoms: _230  and  _233
REMARK  107  A    between atoms: _233  and  _234
REMARK  108  A    between atoms: _237  and  _239
REMARK  109  A    between atoms: _239  and  _240
REMARK  110  A    between atoms: _239  and  _242
REMARK  111  A    between atoms: _242  and  _243
REMARK  112  A    between atoms: _246  and  _248
REMARK  113  A    between atoms: _248  and  _249
REMARK  114  A    between atoms: _248  and  _251
REMARK  115  A    between atoms: _251  and  _252
REMARK  116  A    between atoms: _257  and  _259
REMARK  117  A    between atoms: _259  and  _260
REMARK  118  A    between atoms: _259  and  _262
REMARK  119  A    between atoms: _262  and  _263
REMARK  120  A    between atoms: _268  and  _270
REMARK  121  A    between atoms: _270  and  _271
REMARK  122  A    between atoms: _270  and  _273
REMARK  123  A    between atoms: _273  and  _274
REMARK  124  A    between atoms: _277  and  _279
REMARK  125  A    between atoms: _279  and  _280
REMARK  126  A    between atoms: _282  and  _284
REMARK  127  A    between atoms: _284  and  _285
REMARK  128  A    between atoms: _284  and  _287
REMARK  129  A    between atoms: _287  and  _288
REMARK  130  A    between atoms: _291  and  _293
REMARK  131  A    between atoms: _293  and  _294
REMARK  132  A    between atoms: _293  and  _296
REMARK  133  A    between atoms: _296  and  _297
REMARK  134  A    between atoms: _300  and  _302
REMARK  135  A    between atoms: _302  and  _303
REMARK  136  A    between atoms: _306  and  _308
REMARK  137  A    between atoms: _308  and  _309
REMARK  138  A    between atoms: _308  and  _311
REMARK  139  A    between atoms: _311  and  _312
REMARK  140  A    between atoms: _312  and  _313
REMARK  141  A    between atoms: _313  and  _314
REMARK  142  A    between atoms: _314  and  _315
REMARK  143  A    between atoms: _319  and  _321
REMARK  144  A    between atoms: _321  and  _322
REMARK  145  A    between atoms: _321  and  _324
REMARK  146  A    between atoms: _324  and  _325
REMARK  147  A    between atoms: _327  and  _329
REMARK  148  A    between atoms: _329  and  _330
REMARK  149  A    between atoms: _332  and  _334
REMARK  150  A    between atoms: _334  and  _335
REMARK  151  A    between atoms: _334  and  _337
REMARK  152  A    between atoms: _337  and  _338
REMARK  153  A    between atoms: _341  and  _343
REMARK  154  A    between atoms: _343  and  _344
REMARK  155  A    between atoms: _343  and  _346
REMARK  156  A    between atoms: _346  and  _347
REMARK  157  A    between atoms: _350  and  _352
REMARK  158  A    between atoms: _352  and  _353
REMARK  159  A    between atoms: _355  and  _357
REMARK  160  A    between atoms: _357  and  _358
REMARK  161  A    between atoms: _357  and  _360
REMARK  162  A    between atoms: _360  and  _361
REMARK  163  A    between atoms: _367  and  _369
REMARK  164  A    between atoms: _369  and  _370
REMARK  165  A    between atoms: _372  and  _374
REMARK  166  A    between atoms: _374  and  _375
REMARK  167  A    between atoms: _374  and  _377
REMARK  168  A    between atoms: _380  and  _382
REMARK  169  A    between atoms: _382  and  _383
REMARK  170  A    between atoms: _385  and  _387
REMARK  171  A    between atoms: _387  and  _388
REMARK  172  A    between atoms: _387  and  _390
REMARK  173  A    between atoms: _390  and  _391
REMARK  174  A    between atoms: _397  and  _399
REMARK  175  A    between atoms: _399  and  _400
REMARK  176  A    between atoms: _399  and  _402
REMARK  177  A    between atoms: _402  and  _403
REMARK  178  A    between atoms: _408  and  _409
REMARK  179  A    between atoms: _411  and  _413
REMARK  180  A    between atoms: _413  and  _414
REMARK  181  A    between atoms: _413  and  _416
REMARK  182  A    between atoms: _416  and  _417
REMARK  183  A    between atoms: _419  and  _421
REMARK  184  A    between atoms: _421  and  _422
REMARK  185  A    between atoms: _425  and  _427
REMARK  186  A    between atoms: _427  and  _428
REMARK  187  A    between atoms: _427  and  _430
REMARK  188  A    between atoms: _433  and  _435
REMARK  189  A    between atoms: _435  and  _436
REMARK  190  A    between atoms: _435  and  _438
REMARK  191  A    between atoms: _438  and  _439
REMARK  192  A    between atoms: _442  and  _444
REMARK  193  A    between atoms: _444  and  _445
REMARK  194  A    between atoms: _444  and  _447
REMARK  195  A    between atoms: _447  and  _448
REMARK  196  A    between atoms: _451  and  _453
REMARK  197  A    between atoms: _453  and  _454
REMARK  198  A    between atoms: _453  and  _456
REMARK  199  A    between atoms: _456  and  _457
REMARK  200  A    between atoms: _457  and  _458
REMARK  201  A    between atoms: _458  and  _459
REMARK  202  A    between atoms: _459  and  _460
REMARK  203  A    between atoms: _464  and  _466
REMARK  204  A    between atoms: _466  and  _467
REMARK  205  A    between atoms: _466  and  _469
REMARK  206  A    between atoms: _469  and  _470
REMARK  207  A    between atoms: _475  and  _477
REMARK  208  A    between atoms: _477  and  _478
REMARK  209  A    between atoms: _480  and  _482
REMARK  210  A    between atoms: _482  and  _483
REMARK  211  A    between atoms: _482  and  _485
REMARK  212  A    between atoms: _485  and  _486
REMARK  213  A    between atoms: _489  and  _491
REMARK  214  A    between atoms: _491  and  _492
REMARK  215  A    between atoms: _491  and  _494
REMARK  216  A    between atoms: _494  and  _495
REMARK  217  A    between atoms: _495  and  _496
REMARK  218  A    between atoms: _496  and  _497
REMARK  219  A    between atoms: _497  and  _498
REMARK  220  A    between atoms: _502  and  _504
REMARK  221  A    between atoms: _504  and  _505
REMARK  222  A    between atoms: _504  and  _507
REMARK  223  A    between atoms: _510  and  _512
REMARK  224  A    between atoms: _512  and  _513
REMARK  225  A    between atoms: _512  and  _515
REMARK  226  A    between atoms: _515  and  _516
REMARK  227  A    between atoms: _516  and  _517
REMARK  228  A    between atoms: _517  and  _518
REMARK  229  A    between atoms: _518  and  _519
REMARK                            x       y       z     vdW  Elec       q    Type
REMARK                         _______ _______ _______ _____ _____    ______ ____
ROOT
ATOM      1  O   HOH     1      27.103  18.828  13.122  0.00  0.00    +0.000 OA
ENDROOT
TORSDOF 0
REMARK  Name = ../refined-set-2016/2qg0/2qg0_pocket.pdb
REMARK  229 active torsions:
REMARK  status: ('A' for Active; 'I' for Inactive)
REMARK    1  A    between atoms: _1  and  _3
REMARK    2  A    between atoms: _3  and  _4
REMARK    3  A    between atoms: _3  and  _6
REMARK    4  A    between atoms: _6  and  _7
REMARK    5  A    between atoms: _10  and  _12
REMARK    6  A    between atoms: _12  and  _13
REMARK    7  A    between atoms: _12  and  _15
REMARK    8  A    between atoms: _15  and  _16
REMARK    9  A    between atoms: _19  and  _21
REMARK   10  A    between atoms: _21  and  _22
REMARK   11  A    between atoms: _21  and  _24
REMARK   12  A    between atoms: _24  and  _25
REMARK   13  A    between atoms: _25  and  _26
REMARK   14  A    between atoms: _29  and  _31
REMARK   15  A    between atoms: _31  and  _32
REMARK   16  A    between atoms: _31  and  _34
REMARK   17  A    between atoms: _34  and  _35
REMARK   18  A    between atoms: _38  and  _40
REMARK   19  A    between atoms: _40  and  _41
REMARK   20  A    between atoms: _40  and  _43
REMARK   21  A    between atoms: _43  and  _44
REMARK   22  A    between atoms: _47  and  _49
REMARK   23  A    between atoms: _49  and  _50
REMARK   24  A    between atoms: _49  and  _52
REMARK   25  A    between atoms: _52  and  _53
REMARK   26  A    between atoms: _55  and  _57
REMARK   27  A    between atoms: _57  and  _58
REMARK   28  A    between atoms: _57  and  _60
REMARK   29  A    between atoms: _60  and  _61
REMARK   30  A    between atoms: _66  and  _68
REMARK   31  A    between atoms: _68  and  _69
REMARK   32  A    between atoms: _68  and  _71
REMARK   33  A    between atoms: _71  and  _72
REMARK   34  A    between atoms: _74  and  _76
REMARK   35  A    between atoms: _76  and  _77
REMARK   36  A    between atoms: _76  and  _79
REMARK   37  A    between atoms: _79  and  _80
REMARK   38  A    between atoms: _82  and  _84
REMARK   39  A    between atoms: _84  and  _85
REMARK   40  A    between atoms: _84  and  _87
REMARK   41  A    between atoms: _87  and  _88
REMARK   42  A    between atoms: _91  and  _93
REMARK   43  A    between atoms: _93  and  _94
REMARK   44  A    between atoms: _97  and  _99
REMARK   45  A    between atoms: _99  and  _100
REMARK   46  A    between atoms: _99  and  _102
REMARK   47  A    between atoms: _102  and  _103
REMARK   48  A    between atoms: _106  and  _108
REMARK   49  A    between atoms: _108  and  _109
REMARK   50  A    between atoms: _108  and  _111
REMARK   51  A    between atoms: _111  and  _112
REMARK   52  A    between atoms: _115  and  _117
REMARK   53  A    between atoms: _117  and  _118
REMARK   54  A    between atoms: _117  and  _120
REMARK   55  A    between atoms: _120  and  _121
REMARK   56  A    between atoms: _121  and  _122
REMARK   57  A    between atoms: _122  and  _123
REMARK   58  A    between atoms: _123  and  _124
REMARK   59  A    between atoms: _128  and  _130
REMARK   60  A    between atoms: _130  and  _131
REMARK   61  A    between atoms: _130  and  _133
REMARK   62  A    between atoms: _133  and  _134
REMARK   63  A    between atoms: _137  and  _139
REMARK   64  A    between atoms: _139  and  _140
REMARK   65  A    between atoms: _139  and  _142
REMARK   66  A    between atoms: _142  and  _143
REMARK   67  A    between atoms: _143  and  _144
REMARK   68  A    between atoms: _147  and  _149
REMARK   69  A    between atoms: _149  and  _150
REMARK   70  A    between atoms: _149  and  _152
REMARK   71  A    between atoms: _152  and  _153
REMARK   72  A    between atoms: _156  and  _158
REMARK   73  A    between atoms: _158  and  _159
REMARK   74  A    between atoms: _158  and  _161
REMARK   75  A    between atoms: _161  and  _162
REMARK   76  A    between atoms: _165  and  _167
REMARK   77  A    between atoms: _167  and  _168
REMARK   78  A    between atoms: _167  and  _170
REMARK   79  A    between atoms: _173  and  _175
REMARK   80  A    between atoms: _175  and  _176
REMARK   81  A    between atoms: _175  and  _178
REMARK   82  A    between atoms: _178  and  _179
REMARK   83  A    between atoms: _182  and  _184
REMARK   84  A    between atoms: _184  and  _185
REMARK   85  A    between atoms: _184  and  _187
REMARK   86  A    between atoms: _187  and  _188
REMARK   87  A    between atoms: _191  and  _193
REMARK   88  A    between atoms: _193  and  _194
REMARK   89  A    between atoms: _196  and  _198
REMARK   90  A    between atoms: _198  and  _199
REMARK   91  A    between atoms: _198  and  _201
REMARK   92  A    between atoms: _201  and  _202
REMARK   93  A    between atoms: _205  and  _207
REMARK   94  A    between atoms: _207  and  _208
REMARK   95  A    between atoms: _210  and  _212
REMARK   96  A    between atoms: _212  and  _213
REMARK   97  A    between atoms: _212  and  _215
REMARK   98  A    between atoms: _215  and  _216
REMARK   99  A    between atoms: _216  and  _217
REMARK  100  A    between atoms: _219  and  _221
REMARK  101  A    between atoms: _221  and  _222
REMARK  102  A    between atoms: _221  and  _224
REMARK  103  A    between atoms: _224  and  _225
REMARK  104  A    between atoms: _228  and  _230
REMARK  105  A    between atoms: _230  and  _231
REMARK  106  A    between atoms: _230  and  _233
REMARK  107  A    between atoms: _233  and  _234
REMARK  108  A    between atoms: _237  and  _239
REMARK  109  A    between atoms: _239  and  _240
REMARK  110  A    between atoms: _239  and  _242
REMARK  111  A    between atoms: _242  and  _243
REMARK  112  A    between atoms: _246  and  _248
REMARK  113  A    between atoms: _248  and  _249
REMARK  114  A    between atoms: _248  and  _251
REMARK  115  A    between atoms: _251  and  _252
REMARK  116  A    between atoms: _257  and  _259
REMARK  117  A    between atoms: _259  and  _260
REMARK  118  A    between atoms: _259  and  _262
REMARK  119  A    between atoms: _262  and  _263
REMARK  120  A    between atoms: _268  and  _270
REMARK  121  A    between atoms: _270  and  _271
REMARK  122  A    between atoms: _270  and  _273
REMARK  123  A    between atoms: _273  and  _274
REMARK  124  A    between atoms: _277  and  _279
REMARK  125  A    between atoms: _279  and  _280
REMARK  126  A    between atoms: _282  and  _284
REMARK  127  A    between atoms: _284  and  _285
REMARK  128  A    between atoms: _284  and  _287
REMARK  129  A    between atoms: _287  and  _288
REMARK  130  A    between atoms: _291  and  _293
REMARK  131  A    between atoms: _293  and  _294
REMARK  132  A    between atoms: _293  and  _296
REMARK  133  A    between atoms: _296  and  _297
REMARK  134  A    between atoms: _300  and  _302
REMARK  135  A    between atoms: _302  and  _303
REMARK  136  A    between atoms: _306  and  _308
REMARK  137  A    between atoms: _308  and  _309
REMARK  138  A    between atoms: _308  and  _311
REMARK  139  A    between atoms: _311  and  _312
REMARK  140  A    between atoms: _312  and  _313
REMARK  141  A    between atoms: _313  and  _314
REMARK  142  A    between atoms: _314  and  _315
REMARK  143  A    between atoms: _319  and  _321
REMARK  144  A    between atoms: _321  and  _322
REMARK  145  A    between atoms: _321  and  _324
REMARK  146  A    between atoms: _324  and  _325
REMARK  147  A    between atoms: _327  and  _329
REMARK  148  A    between atoms: _329  and  _330
REMARK  149  A    between atoms: _332  and  _334
REMARK  150  A    between atoms: _334  and  _335
REMARK  151  A    between atoms: _334  and  _337
REMARK  152  A    between atoms: _337  and  _338
REMARK  153  A    between atoms: _341  and  _343
REMARK  154  A    between atoms: _343  and  _344
REMARK  155  A    between atoms: _343  and  _346
REMARK  156  A    between atoms: _346  and  _347
REMARK  157  A    between atoms: _350  and  _352
REMARK  158  A    between atoms: _352  and  _353
REMARK  159  A    between atoms: _355  and  _357
REMARK  160  A    between atoms: _357  and  _358
REMARK  161  A    between atoms: _357  and  _360
REMARK  162  A    between atoms: _360  and  _361
REMARK  163  A    between atoms: _367  and  _369
REMARK  164  A    between atoms: _369  and  _370
REMARK  165  A    between atoms: _372  and  _374
REMARK  166  A    between atoms: _374  and  _375
REMARK  167  A    between atoms: _374  and  _377
REMARK  168  A    between atoms: _380  and  _382
REMARK  169  A    between atoms: _382  and  _383
REMARK  170  A    between atoms: _385  and  _387
REMARK  171  A    between atoms: _387  and  _388
REMARK  172  A    between atoms: _387  and  _390
REMARK  173  A    between atoms: _390  and  _391
REMARK  174  A    between atoms: _397  and  _399
REMARK  175  A    between atoms: _399  and  _400
REMARK  176  A    between atoms: _399  and  _402
REMARK  177  A    between atoms: _402  and  _403
REMARK  178  A    between atoms: _408  and  _409
REMARK  179  A    between atoms: _411  and  _413
REMARK  180  A    between atoms: _413  and  _414
REMARK  181  A    between atoms: _413  and  _416
REMARK  182  A    between atoms: _416  and  _417
REMARK  183  A    between atoms: _419  and  _421
REMARK  184  A    between atoms: _421  and  _422
REMARK  185  A    between atoms: _425  and  _427
REMARK  186  A    between atoms: _427  and  _428
REMARK  187  A    between atoms: _427  and  _430
REMARK  188  A    between atoms: _433  and  _435
REMARK  189  A    between atoms: _435  and  _436
REMARK  190  A    between atoms: _435  and  _438
REMARK  191  A    between atoms: _438  and  _439
REMARK  192  A    between atoms: _442  and  _444
REMARK  193  A    between atoms: _444  and  _445
REMARK  194  A    between atoms: _444  and  _447
REMARK  195  A    between atoms: _447  and  _448
REMARK  196  A    between atoms: _451  and  _453
REMARK  197  A    between atoms: _453  and  _454
REMARK  198  A    between atoms: _453  and  _456
REMARK  199  A    between atoms: _456  and  _457
REMARK  200  A    between atoms: _457  and  _458
REMARK  201  A    between atoms: _458  and  _459
REMARK  202  A    between atoms: _459  and  _460
REMARK  203  A    between atoms: _464  and  _466
REMARK  204  A    between atoms: _466  and  _467
REMARK  205  A    between atoms: _466  and  _469
REMARK  206  A    between atoms: _469  and  _470
REMARK  207  A    between atoms: _475  and  _477
REMARK  208  A    between atoms: _477  and  _478
REMARK  209  A    between atoms: _480  and  _482
REMARK  210  A    between atoms: _482  and  _483
REMARK  211  A    between atoms: _482  and  _485
REMARK  212  A    between atoms: _485  and  _486
REMARK  213  A    between atoms: _489  and  _491
REMARK  214  A    between atoms: _491  and  _492
REMARK  215  A    between atoms: _491  and  _494
REMARK  216  A    between atoms: _494  and  _495
REMARK  217  A    between atoms: _495  and  _496
REMARK  218  A    between atoms: _496  and  _497
REMARK  219  A    between atoms: _497  and  _498
REMARK  220  A    between atoms: _502  and  _504
REMARK  221  A    between atoms: _504  and  _505
REMARK  222  A    between atoms: _504  and  _507
REMARK  223  A    between atoms: _510  and  _512
REMARK  224  A    between atoms: _512  and  _513
REMARK  225  A    between atoms: _512  and  _515
REMARK  226  A    between atoms: _515  and  _516
REMARK  227  A    between atoms: _516  and  _517
REMARK  228  A    between atoms: _517  and  _518
REMARK  229  A    between atoms: _518  and  _519
REMARK                            x       y       z     vdW  Elec       q    Type
REMARK                         _______ _______ _______ _____ _____    ______ ____
ROOT
ATOM      1  O   HOH     1      24.647  19.102  15.011  0.00  0.00    +0.000 OA
ENDROOT
TORSDOF 0
REMARK  Name = ../refined-set-2016/2qg0/2qg0_pocket.pdb
REMARK  229 active torsions:
REMARK  status: ('A' for Active; 'I' for Inactive)
REMARK    1  A    between atoms: _1  and  _3
REMARK    2  A    between atoms: _3  and  _4
REMARK    3  A    between atoms: _3  and  _6
REMARK    4  A    between atoms: _6  and  _7
REMARK    5  A    between atoms: _10  and  _12
REMARK    6  A    between atoms: _12  and  _13
REMARK    7  A    between atoms: _12  and  _15
REMARK    8  A    between atoms: _15  and  _16
REMARK    9  A    between atoms: _19  and  _21
REMARK   10  A    between atoms: _21  and  _22
REMARK   11  A    between atoms: _21  and  _24
REMARK   12  A    between atoms: _24  and  _25
REMARK   13  A    between atoms: _25  and  _26
REMARK   14  A    between atoms: _29  and  _31
REMARK   15  A    between atoms: _31  and  _32
REMARK   16  A    between atoms: _31  and  _34
REMARK   17  A    between atoms: _34  and  _35
REMARK   18  A    between atoms: _38  and  _40
REMARK   19  A    between atoms: _40  and  _41
REMARK   20  A    between atoms: _40  and  _43
REMARK   21  A    between atoms: _43  and  _44
REMARK   22  A    between atoms: _47  and  _49
REMARK   23  A    between atoms: _49  and  _50
REMARK   24  A    between atoms: _49  and  _52
REMARK   25  A    between atoms: _52  and  _53
REMARK   26  A    between atoms: _55  and  _57
REMARK   27  A    between atoms: _57  and  _58
REMARK   28  A    between atoms: _57  and  _60
REMARK   29  A    between atoms: _60  and  _61
REMARK   30  A    between atoms: _66  and  _68
REMARK   31  A    between atoms: _68  and  _69
REMARK   32  A    between atoms: _68  and  _71
REMARK   33  A    between atoms: _71  and  _72
REMARK   34  A    between atoms: _74  and  _76
REMARK   35  A    between atoms: _76  and  _77
REMARK   36  A    between atoms: _76  and  _79
REMARK   37  A    between atoms: _79  and  _80
REMARK   38  A    between atoms: _82  and  _84
REMARK   39  A    between atoms: _84  and  _85
REMARK   40  A    between atoms: _84  and  _87
REMARK   41  A    between atoms: _87  and  _88
REMARK   42  A    between atoms: _91  and  _93
REMARK   43  A    between atoms: _93  and  _94
REMARK   44  A    between atoms: _97  and  _99
REMARK   45  A    between atoms: _99  and  _100
REMARK   46  A    between atoms: _99  and  _102
REMARK   47  A    between atoms: _102  and  _103
REMARK   48  A    between atoms: _106  and  _108
REMARK   49  A    between atoms: _108  and  _109
REMARK   50  A    between atoms: _108  and  _111
REMARK   51  A    between atoms: _111  and  _112
REMARK   52  A    between atoms: _115  and  _117
REMARK   53  A    between atoms: _117  and  _118
REMARK   54  A    between atoms: _117  and  _120
REMARK   55  A    between atoms: _120  and  _121
REMARK   56  A    between atoms: _121  and  _122
REMARK   57  A    between atoms: _122  and  _123
REMARK   58  A    between atoms: _123  and  _124
REMARK   59  A    between atoms: _128  and  _130
REMARK   60  A    between atoms: _130  and  _131
REMARK   61  A    between atoms: _130  and  _133
REMARK   62  A    between atoms: _133  and  _134
REMARK   63  A    between atoms: _137  and  _139
REMARK   64  A    between atoms: _139  and  _140
REMARK   65  A    between atoms: _139  and  _142
REMARK   66  A    between atoms: _142  and  _143
REMARK   67  A    between atoms: _143  and  _144
REMARK   68  A    between atoms: _147  and  _149
REMARK   69  A    between atoms: _149  and  _150
REMARK   70  A    between atoms: _149  and  _152
REMARK   71  A    between atoms: _152  and  _153
REMARK   72  A    between atoms: _156  and  _158
REMARK   73  A    between atoms: _158  and  _159
REMARK   74  A    between atoms: _158  and  _161
REMARK   75  A    between atoms: _161  and  _162
REMARK   76  A    between atoms: _165  and  _167
REMARK   77  A    between atoms: _167  and  _168
REMARK   78  A    between atoms: _167  and  _170
REMARK   79  A    between atoms: _173  and  _175
REMARK   80  A    between atoms: _175  and  _176
REMARK   81  A    between atoms: _175  and  _178
REMARK   82  A    between atoms: _178  and  _179
REMARK   83  A    between atoms: _182  and  _184
REMARK   84  A    between atoms: _184  and  _185
REMARK   85  A    between atoms: _184  and  _187
REMARK   86  A    between atoms: _187  and  _188
REMARK   87  A    between atoms: _191  and  _193
REMARK   88  A    between atoms: _193  and  _194
REMARK   89  A    between atoms: _196  and  _198
REMARK   90  A    between atoms: _198  and  _199
REMARK   91  A    between atoms: _198  and  _201
REMARK   92  A    between atoms: _201  and  _202
REMARK   93  A    between atoms: _205  and  _207
REMARK   94  A    between atoms: _207  and  _208
REMARK   95  A    between atoms: _210  and  _212
REMARK   96  A    between atoms: _212  and  _213
REMARK   97  A    between atoms: _212  and  _215
REMARK   98  A    between atoms: _215  and  _216
REMARK   99  A    between atoms: _216  and  _217
REMARK  100  A    between atoms: _219  and  _221
REMARK  101  A    between atoms: _221  and  _222
REMARK  102  A    between atoms: _221  and  _224
REMARK  103  A    between atoms: _224  and  _225
REMARK  104  A    between atoms: _228  and  _230
REMARK  105  A    between atoms: _230  and  _231
REMARK  106  A    between atoms: _230  and  _233
REMARK  107  A    between atoms: _233  and  _234
REMARK  108  A    between atoms: _237  and  _239
REMARK  109  A    between atoms: _239  and  _240
REMARK  110  A    between atoms: _239  and  _242
REMARK  111  A    between atoms: _242  and  _243
REMARK  112  A    between atoms: _246  and  _248
REMARK  113  A    between atoms: _248  and  _249
REMARK  114  A    between atoms: _248  and  _251
REMARK  115  A    between atoms: _251  and  _252
REMARK  116  A    between atoms: _257  and  _259
REMARK  117  A    between atoms: _259  and  _260
REMARK  118  A    between atoms: _259  and  _262
REMARK  119  A    between atoms: _262  and  _263
REMARK  120  A    between atoms: _268  and  _270
REMARK  121  A    between atoms: _270  and  _271
REMARK  122  A    between atoms: _270  and  _273
REMARK  123  A    between atoms: _273  and  _274
REMARK  124  A    between atoms: _277  and  _279
REMARK  125  A    between atoms: _279  and  _280
REMARK  126  A    between atoms: _282  and  _284
REMARK  127  A    between atoms: _284  and  _285
REMARK  128  A    between atoms: _284  and  _287
REMARK  129  A    between atoms: _287  and  _288
REMARK  130  A    between atoms: _291  and  _293
REMARK  131  A    between atoms: _293  and  _294
REMARK  132  A    between atoms: _293  and  _296
REMARK  133  A    between atoms: _296  and  _297
REMARK  134  A    between atoms: _300  and  _302
REMARK  135  A    between atoms: _302  and  _303
REMARK  136  A    between atoms: _306  and  _308
REMARK  137  A    between atoms: _308  and  _309
REMARK  138  A    between atoms: _308  and  _311
REMARK  139  A    between atoms: _311  and  _312
REMARK  140  A    between atoms: _312  and  _313
REMARK  141  A    between atoms: _313  and  _314
REMARK  142  A    between atoms: _314  and  _315
REMARK  143  A    between atoms: _319  and  _321
REMARK  144  A    between atoms: _321  and  _322
REMARK  145  A    between atoms: _321  and  _324
REMARK  146  A    between atoms: _324  and  _325
REMARK  147  A    between atoms: _327  and  _329
REMARK  148  A    between atoms: _329  and  _330
REMARK  149  A    between atoms: _332  and  _334
REMARK  150  A    between atoms: _334  and  _335
REMARK  151  A    between atoms: _334  and  _337
REMARK  152  A    between atoms: _337  and  _338
REMARK  153  A    between atoms: _341  and  _343
REMARK  154  A    between atoms: _343  and  _344
REMARK  155  A    between atoms: _343  and  _346
REMARK  156  A    between atoms: _346  and  _347
REMARK  157  A    between atoms: _350  and  _352
REMARK  158  A    between atoms: _352  and  _353
REMARK  159  A    between atoms: _355  and  _357
REMARK  160  A    between atoms: _357  and  _358
REMARK  161  A    between atoms: _357  and  _360
REMARK  162  A    between atoms: _360  and  _361
REMARK  163  A    between atoms: _367  and  _369
REMARK  164  A    between atoms: _369  and  _370
REMARK  165  A    between atoms: _372  and  _374
REMARK  166  A    between atoms: _374  and  _375
REMARK  167  A    between atoms: _374  and  _377
REMARK  168  A    between atoms: _380  and  _382
REMARK  169  A    between atoms: _382  and  _383
REMARK  170  A    between atoms: _385  and  _387
REMARK  171  A    between atoms: _387  and  _388
REMARK  172  A    between atoms: _387  and  _390
REMARK  173  A    between atoms: _390  and  _391
REMARK  174  A    between atoms: _397  and  _399
REMARK  175  A    between atoms: _399  and  _400
REMARK  176  A    between atoms: _399  and  _402
REMARK  177  A    between atoms: _402  and  _403
REMARK  178  A    between atoms: _408  and  _409
REMARK  179  A    between atoms: _411  and  _413
REMARK  180  A    between atoms: _413  and  _414
REMARK  181  A    between atoms: _413  and  _416
REMARK  182  A    between atoms: _416  and  _417
REMARK  183  A    between atoms: _419  and  _421
REMARK  184  A    between atoms: _421  and  _422
REMARK  185  A    between atoms: _425  and  _427
REMARK  186  A    between atoms: _427  and  _428
REMARK  187  A    between atoms: _427  and  _430
REMARK  188  A    between atoms: _433  and  _435
REMARK  189  A    between atoms: _435  and  _436
REMARK  190  A    between atoms: _435  and  _438
REMARK  191  A    between atoms: _438  and  _439
REMARK  192  A    between atoms: _442  and  _444
REMARK  193  A    between atoms: _444  and  _445
REMARK  194  A    between atoms: _444  and  _447
REMARK  195  A    between atoms: _447  and  _448
REMARK  196  A    between atoms: _451  and  _453
REMARK  197  A    between atoms: _453  and  _454
REMARK  198  A    between atoms: _453  and  _456
REMARK  199  A    between atoms: _456  and  _457
REMARK  200  A    between atoms: _457  and  _458
REMARK  201  A    between atoms: _458  and  _459
REMARK  202  A    between atoms: _459  and  _460
REMARK  203  A    between atoms: _464  and  _466
REMARK  204  A    between atoms: _466  and  _467
REMARK  205  A    between atoms: _466  and  _469
REMARK  206  A    between atoms: _469  and  _470
REMARK  207  A    between atoms: _475  and  _477
REMARK  208  A    between atoms: _477  and  _478
REMARK  209  A    between atoms: _480  and  _482
REMARK  210  A    between atoms: _482  and  _483
REMARK  211  A    between atoms: _482  and  _485
REMARK  212  A    between atoms: _485  and  _486
REMARK  213  A    between atoms: _489  and  _491
REMARK  214  A    between atoms: _491  and  _492
REMARK  215  A    between atoms: _491  and  _494
REMARK  216  A    between atoms: _494  and  _495
REMARK  217  A    between atoms: _495  and  _496
REMARK  218  A    between atoms: _496  and  _497
REMARK  219  A    between atoms: _497  and  _498
REMARK  220  A    between atoms: _502  and  _504
REMARK  221  A    between atoms: _504  and  _505
REMARK  222  A    between atoms: _504  and  _507
REMARK  223  A    between atoms: _510  and  _512
REMARK  224  A    between atoms: _512  and  _513
REMARK  225  A    between atoms: _512  and  _515
REMARK  226  A    between atoms: _515  and  _516
REMARK  227  A    between atoms: _516  and  _517
REMARK  228  A    between atoms: _517  and  _518
REMARK  229  A    between atoms: _518  and  _519
REMARK                            x       y       z     vdW  Elec       q    Type
REMARK                         _______ _______ _______ _____ _____    ______ ____
ROOT
ATOM      1  O   HOH     1      27.512  18.164  16.597  0.00  0.00    +0.000 OA
ENDROOT
TORSDOF 0
REMARK  Name = ../refined-set-2016/2qg0/2qg0_pocket.pdb
REMARK  229 active torsions:
REMARK  status: ('A' for Active; 'I' for Inactive)
REMARK    1  A    between atoms: _1  and  _3
REMARK    2  A    between atoms: _3  and  _4
REMARK    3  A    between atoms: _3  and  _6
REMARK    4  A    between atoms: _6  and  _7
REMARK    5  A    between atoms: _10  and  _12
REMARK    6  A    between atoms: _12  and  _13
REMARK    7  A    between atoms: _12  and  _15
REMARK    8  A    between atoms: _15  and  _16
REMARK    9  A    between atoms: _19  and  _21
REMARK   10  A    between atoms: _21  and  _22
REMARK   11  A    between atoms: _21  and  _24
REMARK   12  A    between atoms: _24  and  _25
REMARK   13  A    between atoms: _25  and  _26
REMARK   14  A    between atoms: _29  and  _31
REMARK   15  A    between atoms: _31  and  _32
REMARK   16  A    between atoms: _31  and  _34
REMARK   17  A    between atoms: _34  and  _35
REMARK   18  A    between atoms: _38  and  _40
REMARK   19  A    between atoms: _40  and  _41
REMARK   20  A    between atoms: _40  and  _43
REMARK   21  A    between atoms: _43  and  _44
REMARK   22  A    between atoms: _47  and  _49
REMARK   23  A    between atoms: _49  and  _50
REMARK   24  A    between atoms: _49  and  _52
REMARK   25  A    between atoms: _52  and  _53
REMARK   26  A    between atoms: _55  and  _57
REMARK   27  A    between atoms: _57  and  _58
REMARK   28  A    between atoms: _57  and  _60
REMARK   29  A    between atoms: _60  and  _61
REMARK   30  A    between atoms: _66  and  _68
REMARK   31  A    between atoms: _68  and  _69
REMARK   32  A    between atoms: _68  and  _71
REMARK   33  A    between atoms: _71  and  _72
REMARK   34  A    between atoms: _74  and  _76
REMARK   35  A    between atoms: _76  and  _77
REMARK   36  A    between atoms: _76  and  _79
REMARK   37  A    between atoms: _79  and  _80
REMARK   38  A    between atoms: _82  and  _84
REMARK   39  A    between atoms: _84  and  _85
REMARK   40  A    between atoms: _84  and  _87
REMARK   41  A    between atoms: _87  and  _88
REMARK   42  A    between atoms: _91  and  _93
REMARK   43  A    between atoms: _93  and  _94
REMARK   44  A    between atoms: _97  and  _99
REMARK   45  A    between atoms: _99  and  _100
REMARK   46  A    between atoms: _99  and  _102
REMARK   47  A    between atoms: _102  and  _103
REMARK   48  A    between atoms: _106  and  _108
REMARK   49  A    between atoms: _108  and  _109
REMARK   50  A    between atoms: _108  and  _111
REMARK   51  A    between atoms: _111  and  _112
REMARK   52  A    between atoms: _115  and  _117
REMARK   53  A    between atoms: _117  and  _118
REMARK   54  A    between atoms: _117  and  _120
REMARK   55  A    between atoms: _120  and  _121
REMARK   56  A    between atoms: _121  and  _122
REMARK   57  A    between atoms: _122  and  _123
REMARK   58  A    between atoms: _123  and  _124
REMARK   59  A    between atoms: _128  and  _130
REMARK   60  A    between atoms: _130  and  _131
REMARK   61  A    between atoms: _130  and  _133
REMARK   62  A    between atoms: _133  and  _134
REMARK   63  A    between atoms: _137  and  _139
REMARK   64  A    between atoms: _139  and  _140
REMARK   65  A    between atoms: _139  and  _142
REMARK   66  A    between atoms: _142  and  _143
REMARK   67  A    between atoms: _143  and  _144
REMARK   68  A    between atoms: _147  and  _149
REMARK   69  A    between atoms: _149  and  _150
REMARK   70  A    between atoms: _149  and  _152
REMARK   71  A    between atoms: _152  and  _153
REMARK   72  A    between atoms: _156  and  _158
REMARK   73  A    between atoms: _158  and  _159
REMARK   74  A    between atoms: _158  and  _161
REMARK   75  A    between atoms: _161  and  _162
REMARK   76  A    between atoms: _165  and  _167
REMARK   77  A    between atoms: _167  and  _168
REMARK   78  A    between atoms: _167  and  _170
REMARK   79  A    between atoms: _173  and  _175
REMARK   80  A    between atoms: _175  and  _176
REMARK   81  A    between atoms: _175  and  _178
REMARK   82  A    between atoms: _178  and  _179
REMARK   83  A    between atoms: _182  and  _184
REMARK   84  A    between atoms: _184  and  _185
REMARK   85  A    between atoms: _184  and  _187
REMARK   86  A    between atoms: _187  and  _188
REMARK   87  A    between atoms: _191  and  _193
REMARK   88  A    between atoms: _193  and  _194
REMARK   89  A    between atoms: _196  and  _198
REMARK   90  A    between atoms: _198  and  _199
REMARK   91  A    between atoms: _198  and  _201
REMARK   92  A    between atoms: _201  and  _202
REMARK   93  A    between atoms: _205  and  _207
REMARK   94  A    between atoms: _207  and  _208
REMARK   95  A    between atoms: _210  and  _212
REMARK   96  A    between atoms: _212  and  _213
REMARK   97  A    between atoms: _212  and  _215
REMARK   98  A    between atoms: _215  and  _216
REMARK   99  A    between atoms: _216  and  _217
REMARK  100  A    between atoms: _219  and  _221
REMARK  101  A    between atoms: _221  and  _222
REMARK  102  A    between atoms: _221  and  _224
REMARK  103  A    between atoms: _224  and  _225
REMARK  104  A    between atoms: _228  and  _230
REMARK  105  A    between atoms: _230  and  _231
REMARK  106  A    between atoms: _230  and  _233
REMARK  107  A    between atoms: _233  and  _234
REMARK  108  A    between atoms: _237  and  _239
REMARK  109  A    between atoms: _239  and  _240
REMARK  110  A    between atoms: _239  and  _242
REMARK  111  A    between atoms: _242  and  _243
REMARK  112  A    between atoms: _246  and  _248
REMARK  113  A    between atoms: _248  and  _249
REMARK  114  A    between atoms: _248  and  _251
REMARK  115  A    between atoms: _251  and  _252
REMARK  116  A    between atoms: _257  and  _259
REMARK  117  A    between atoms: _259  and  _260
REMARK  118  A    between atoms: _259  and  _262
REMARK  119  A    between atoms: _262  and  _263
REMARK  120  A    between atoms: _268  and  _270
REMARK  121  A    between atoms: _270  and  _271
REMARK  122  A    between atoms: _270  and  _273
REMARK  123  A    between atoms: _273  and  _274
REMARK  124  A    between atoms: _277  and  _279
REMARK  125  A    between atoms: _279  and  _280
REMARK  126  A    between atoms: _282  and  _284
REMARK  127  A    between atoms: _284  and  _285
REMARK  128  A    between atoms: _284  and  _287
REMARK  129  A    between atoms: _287  and  _288
REMARK  130  A    between atoms: _291  and  _293
REMARK  131  A    between atoms: _293  and  _294
REMARK  132  A    between atoms: _293  and  _296
REMARK  133  A    between atoms: _296  and  _297
REMARK  134  A    between atoms: _300  and  _302
REMARK  135  A    between atoms: _302  and  _303
REMARK  136  A    between atoms: _306  and  _308
REMARK  137  A    between atoms: _308  and  _309
REMARK  138  A    between atoms: _308  and  _311
REMARK  139  A    between atoms: _311  and  _312
REMARK  140  A    between atoms: _312  and  _313
REMARK  141  A    between atoms: _313  and  _314
REMARK  142  A    between atoms: _314  and  _315
REMARK  143  A    between atoms: _319  and  _321
REMARK  144  A    between atoms: _321  and  _322
REMARK  145  A    between atoms: _321  and  _324
REMARK  146  A    between atoms: _324  and  _325
REMARK  147  A    between atoms: _327  and  _329
REMARK  148  A    between atoms: _329  and  _330
REMARK  149  A    between atoms: _332  and  _334
REMARK  150  A    between atoms: _334  and  _335
REMARK  151  A    between atoms: _334  and  _337
REMARK  152  A    between atoms: _337  and  _338
REMARK  153  A    between atoms: _341  and  _343
REMARK  154  A    between atoms: _343  and  _344
REMARK  155  A    between atoms: _343  and  _346
REMARK  156  A    between atoms: _346  and  _347
REMARK  157  A    between atoms: _350  and  _352
REMARK  158  A    between atoms: _352  and  _353
REMARK  159  A    between atoms: _355  and  _357
REMARK  160  A    between atoms: _357  and  _358
REMARK  161  A    between atoms: _357  and  _360
REMARK  162  A    between atoms: _360  and  _361
REMARK  163  A    between atoms: _367  and  _369
REMARK  164  A    between atoms: _369  and  _370
REMARK  165  A    between atoms: _372  and  _374
REMARK  166  A    between atoms: _374  and  _375
REMARK  167  A    between atoms: _374  and  _377
REMARK  168  A    between atoms: _380  and  _382
REMARK  169  A    between atoms: _382  and  _383
REMARK  170  A    between atoms: _385  and  _387
REMARK  171  A    between atoms: _387  and  _388
REMARK  172  A    between atoms: _387  and  _390
REMARK  173  A    between atoms: _390  and  _391
REMARK  174  A    between atoms: _397  and  _399
REMARK  175  A    between atoms: _399  and  _400
REMARK  176  A    between atoms: _399  and  _402
REMARK  177  A    between atoms: _402  and  _403
REMARK  178  A    between atoms: _408  and  _409
REMARK  179  A    between atoms: _411  and  _413
REMARK  180  A    between atoms: _413  and  _414
REMARK  181  A    between atoms: _413  and  _416
REMARK  182  A    between atoms: _416  and  _417
REMARK  183  A    between atoms: _419  and  _421
REMARK  184  A    between atoms: _421  and  _422
REMARK  185  A    between atoms: _425  and  _427
REMARK  186  A    between atoms: _427  and  _428
REMARK  187  A    between atoms: _427  and  _430
REMARK  188  A    between atoms: _433  and  _435
REMARK  189  A    between atoms: _435  and  _436
REMARK  190  A    between atoms: _435  and  _438
REMARK  191  A    between atoms: _438  and  _439
REMARK  192  A    between atoms: _442  and  _444
REMARK  193  A    between atoms: _444  and  _445
REMARK  194  A    between atoms: _444  and  _447
REMARK  195  A    between atoms: _447  and  _448
REMARK  196  A    between atoms: _451  and  _453
REMARK  197  A    between atoms: _453  and  _454
REMARK  198  A    between atoms: _453  and  _456
REMARK  199  A    between atoms: _456  and  _457
REMARK  200  A    between atoms: _457  and  _458
REMARK  201  A    between atoms: _458  and  _459
REMARK  202  A    between atoms: _459  and  _460
REMARK  203  A    between atoms: _464  and  _466
REMARK  204  A    between atoms: _466  and  _467
REMARK  205  A    between atoms: _466  and  _469
REMARK  206  A    between atoms: _469  and  _470
REMARK  207  A    between atoms: _475  and  _477
REMARK  208  A    between atoms: _477  and  _478
REMARK  209  A    between atoms: _480  and  _482
REMARK  210  A    between atoms: _482  and  _483
REMARK  211  A    between atoms: _482  and  _485
REMARK  212  A    between atoms: _485  and  _486
REMARK  213  A    between atoms: _489  and  _491
REMARK  214  A    between atoms: _491  and  _492
REMARK  215  A    between atoms: _491  and  _494
REMARK  216  A    between atoms: _494  and  _495
REMARK  217  A    between atoms: _495  and  _496
REMARK  218  A    between atoms: _496  and  _497
REMARK  219  A    between atoms: _497  and  _498
REMARK  220  A    between atoms: _502  and  _504
REMARK  221  A    between atoms: _504  and  _505
REMARK  222  A    between atoms: _504  and  _507
REMARK  223  A    between atoms: _510  and  _512
REMARK  224  A    between atoms: _512  and  _513
REMARK  225  A    between atoms: _512  and  _515
REMARK  226  A    between atoms: _515  and  _516
REMARK  227  A    between atoms: _516  and  _517
REMARK  228  A    between atoms: _517  and  _518
REMARK  229  A    between atoms: _518  and  _519
REMARK                            x       y       z     vdW  Elec       q    Type
REMARK                         _______ _______ _______ _____ _____    ______ ____
ROOT
ATOM      1  O   HOH     1      19.957  19.966  11.209  0.00  0.00    +0.000 OA
ENDROOT
TORSDOF 0
REMARK  Name = ../refined-set-2016/2qg0/2qg0_pocket.pdb
REMARK  229 active torsions:
REMARK  status: ('A' for Active; 'I' for Inactive)
REMARK    1  A    between atoms: _1  and  _3
REMARK    2  A    between atoms: _3  and  _4
REMARK    3  A    between atoms: _3  and  _6
REMARK    4  A    between atoms: _6  and  _7
REMARK    5  A    between atoms: _10  and  _12
REMARK    6  A    between atoms: _12  and  _13
REMARK    7  A    between atoms: _12  and  _15
REMARK    8  A    between atoms: _15  and  _16
REMARK    9  A    between atoms: _19  and  _21
REMARK   10  A    between atoms: _21  and  _22
REMARK   11  A    between atoms: _21  and  _24
REMARK   12  A    between atoms: _24  and  _25
REMARK   13  A    between atoms: _25  and  _26
REMARK   14  A    between atoms: _29  and  _31
REMARK   15  A    between atoms: _31  and  _32
REMARK   16  A    between atoms: _31  and  _34
REMARK   17  A    between atoms: _34  and  _35
REMARK   18  A    between atoms: _38  and  _40
REMARK   19  A    between atoms: _40  and  _41
REMARK   20  A    between atoms: _40  and  _43
REMARK   21  A    between atoms: _43  and  _44
REMARK   22  A    between atoms: _47  and  _49
REMARK   23  A    between atoms: _49  and  _50
REMARK   24  A    between atoms: _49  and  _52
REMARK   25  A    between atoms: _52  and  _53
REMARK   26  A    between atoms: _55  and  _57
REMARK   27  A    between atoms: _57  and  _58
REMARK   28  A    between atoms: _57  and  _60
REMARK   29  A    between atoms: _60  and  _61
REMARK   30  A    between atoms: _66  and  _68
REMARK   31  A    between atoms: _68  and  _69
REMARK   32  A    between atoms: _68  and  _71
REMARK   33  A    between atoms: _71  and  _72
REMARK   34  A    between atoms: _74  and  _76
REMARK   35  A    between atoms: _76  and  _77
REMARK   36  A    between atoms: _76  and  _79
REMARK   37  A    between atoms: _79  and  _80
REMARK   38  A    between atoms: _82  and  _84
REMARK   39  A    between atoms: _84  and  _85
REMARK   40  A    between atoms: _84  and  _87
REMARK   41  A    between atoms: _87  and  _88
REMARK   42  A    between atoms: _91  and  _93
REMARK   43  A    between atoms: _93  and  _94
REMARK   44  A    between atoms: _97  and  _99
REMARK   45  A    between atoms: _99  and  _100
REMARK   46  A    between atoms: _99  and  _102
REMARK   47  A    between atoms: _102  and  _103
REMARK   48  A    between atoms: _106  and  _108
REMARK   49  A    between atoms: _108  and  _109
REMARK   50  A    between atoms: _108  and  _111
REMARK   51  A    between atoms: _111  and  _112
REMARK   52  A    between atoms: _115  and  _117
REMARK   53  A    between atoms: _117  and  _118
REMARK   54  A    between atoms: _117  and  _120
REMARK   55  A    between atoms: _120  and  _121
REMARK   56  A    between atoms: _121  and  _122
REMARK   57  A    between atoms: _122  and  _123
REMARK   58  A    between atoms: _123  and  _124
REMARK   59  A    between atoms: _128  and  _130
REMARK   60  A    between atoms: _130  and  _131
REMARK   61  A    between atoms: _130  and  _133
REMARK   62  A    between atoms: _133  and  _134
REMARK   63  A    between atoms: _137  and  _139
REMARK   64  A    between atoms: _139  and  _140
REMARK   65  A    between atoms: _139  and  _142
REMARK   66  A    between atoms: _142  and  _143
REMARK   67  A    between atoms: _143  and  _144
REMARK   68  A    between atoms: _147  and  _149
REMARK   69  A    between atoms: _149  and  _150
REMARK   70  A    between atoms: _149  and  _152
REMARK   71  A    between atoms: _152  and  _153
REMARK   72  A    between atoms: _156  and  _158
REMARK   73  A    between atoms: _158  and  _159
REMARK   74  A    between atoms: _158  and  _161
REMARK   75  A    between atoms: _161  and  _162
REMARK   76  A    between atoms: _165  and  _167
REMARK   77  A    between atoms: _167  and  _168
REMARK   78  A    between atoms: _167  and  _170
REMARK   79  A    between atoms: _173  and  _175
REMARK   80  A    between atoms: _175  and  _176
REMARK   81  A    between atoms: _175  and  _178
REMARK   82  A    between atoms: _178  and  _179
REMARK   83  A    between atoms: _182  and  _184
REMARK   84  A    between atoms: _184  and  _185
REMARK   85  A    between atoms: _184  and  _187
REMARK   86  A    between atoms: _187  and  _188
REMARK   87  A    between atoms: _191  and  _193
REMARK   88  A    between atoms: _193  and  _194
REMARK   89  A    between atoms: _196  and  _198
REMARK   90  A    between atoms: _198  and  _199
REMARK   91  A    between atoms: _198  and  _201
REMARK   92  A    between atoms: _201  and  _202
REMARK   93  A    between atoms: _205  and  _207
REMARK   94  A    between atoms: _207  and  _208
REMARK   95  A    between atoms: _210  and  _212
REMARK   96  A    between atoms: _212  and  _213
REMARK   97  A    between atoms: _212  and  _215
REMARK   98  A    between atoms: _215  and  _216
REMARK   99  A    between atoms: _216  and  _217
REMARK  100  A    between atoms: _219  and  _221
REMARK  101  A    between atoms: _221  and  _222
REMARK  102  A    between atoms: _221  and  _224
REMARK  103  A    between atoms: _224  and  _225
REMARK  104  A    between atoms: _228  and  _230
REMARK  105  A    between atoms: _230  and  _231
REMARK  106  A    between atoms: _230  and  _233
REMARK  107  A    between atoms: _233  and  _234
REMARK  108  A    between atoms: _237  and  _239
REMARK  109  A    between atoms: _239  and  _240
REMARK  110  A    between atoms: _239  and  _242
REMARK  111  A    between atoms: _242  and  _243
REMARK  112  A    between atoms: _246  and  _248
REMARK  113  A    between atoms: _248  and  _249
REMARK  114  A    between atoms: _248  and  _251
REMARK  115  A    between atoms: _251  and  _252
REMARK  116  A    between atoms: _257  and  _259
REMARK  117  A    between atoms: _259  and  _260
REMARK  118  A    between atoms: _259  and  _262
REMARK  119  A    between atoms: _262  and  _263
REMARK  120  A    between atoms: _268  and  _270
REMARK  121  A    between atoms: _270  and  _271
REMARK  122  A    between atoms: _270  and  _273
REMARK  123  A    between atoms: _273  and  _274
REMARK  124  A    between atoms: _277  and  _279
REMARK  125  A    between atoms: _279  and  _280
REMARK  126  A    between atoms: _282  and  _284
REMARK  127  A    between atoms: _284  and  _285
REMARK  128  A    between atoms: _284  and  _287
REMARK  129  A    between atoms: _287  and  _288
REMARK  130  A    between atoms: _291  and  _293
REMARK  131  A    between atoms: _293  and  _294
REMARK  132  A    between atoms: _293  and  _296
REMARK  133  A    between atoms: _296  and  _297
REMARK  134  A    between atoms: _300  and  _302
REMARK  135  A    between atoms: _302  and  _303
REMARK  136  A    between atoms: _306  and  _308
REMARK  137  A    between atoms: _308  and  _309
REMARK  138  A    between atoms: _308  and  _311
REMARK  139  A    between atoms: _311  and  _312
REMARK  140  A    between atoms: _312  and  _313
REMARK  141  A    between atoms: _313  and  _314
REMARK  142  A    between atoms: _314  and  _315
REMARK  143  A    between atoms: _319  and  _321
REMARK  144  A    between atoms: _321  and  _322
REMARK  145  A    between atoms: _321  and  _324
REMARK  146  A    between atoms: _324  and  _325
REMARK  147  A    between atoms: _327  and  _329
REMARK  148  A    between atoms: _329  and  _330
REMARK  149  A    between atoms: _332  and  _334
REMARK  150  A    between atoms: _334  and  _335
REMARK  151  A    between atoms: _334  and  _337
REMARK  152  A    between atoms: _337  and  _338
REMARK  153  A    between atoms: _341  and  _343
REMARK  154  A    between atoms: _343  and  _344
REMARK  155  A    between atoms: _343  and  _346
REMARK  156  A    between atoms: _346  and  _347
REMARK  157  A    between atoms: _350  and  _352
REMARK  158  A    between atoms: _352  and  _353
REMARK  159  A    between atoms: _355  and  _357
REMARK  160  A    between atoms: _357  and  _358
REMARK  161  A    between atoms: _357  and  _360
REMARK  162  A    between atoms: _360  and  _361
REMARK  163  A    between atoms: _367  and  _369
REMARK  164  A    between atoms: _369  and  _370
REMARK  165  A    between atoms: _372  and  _374
REMARK  166  A    between atoms: _374  and  _375
REMARK  167  A    between atoms: _374  and  _377
REMARK  168  A    between atoms: _380  and  _382
REMARK  169  A    between atoms: _382  and  _383
REMARK  170  A    between atoms: _385  and  _387
REMARK  171  A    between atoms: _387  and  _388
REMARK  172  A    between atoms: _387  and  _390
REMARK  173  A    between atoms: _390  and  _391
REMARK  174  A    between atoms: _397  and  _399
REMARK  175  A    between atoms: _399  and  _400
REMARK  176  A    between atoms: _399  and  _402
REMARK  177  A    between atoms: _402  and  _403
REMARK  178  A    between atoms: _408  and  _409
REMARK  179  A    between atoms: _411  and  _413
REMARK  180  A    between atoms: _413  and  _414
REMARK  181  A    between atoms: _413  and  _416
REMARK  182  A    between atoms: _416  and  _417
REMARK  183  A    between atoms: _419  and  _421
REMARK  184  A    between atoms: _421  and  _422
REMARK  185  A    between atoms: _425  and  _427
REMARK  186  A    between atoms: _427  and  _428
REMARK  187  A    between atoms: _427  and  _430
REMARK  188  A    between atoms: _433  and  _435
REMARK  189  A    between atoms: _435  and  _436
REMARK  190  A    between atoms: _435  and  _438
REMARK  191  A    between atoms: _438  and  _439
REMARK  192  A    between atoms: _442  and  _444
REMARK  193  A    between atoms: _444  and  _445
REMARK  194  A    between atoms: _444  and  _447
REMARK  195  A    between atoms: _447  and  _448
REMARK  196  A    between atoms: _451  and  _453
REMARK  197  A    between atoms: _453  and  _454
REMARK  198  A    between atoms: _453  and  _456
REMARK  199  A    between atoms: _456  and  _457
REMARK  200  A    between atoms: _457  and  _458
REMARK  201  A    between atoms: _458  and  _459
REMARK  202  A    between atoms: _459  and  _460
REMARK  203  A    between atoms: _464  and  _466
REMARK  204  A    between atoms: _466  and  _467
REMARK  205  A    between atoms: _466  and  _469
REMARK  206  A    between atoms: _469  and  _470
REMARK  207  A    between atoms: _475  and  _477
REMARK  208  A    between atoms: _477  and  _478
REMARK  209  A    between atoms: _480  and  _482
REMARK  210  A    between atoms: _482  and  _483
REMARK  211  A    between atoms: _482  and  _485
REMARK  212  A    between atoms: _485  and  _486
REMARK  213  A    between atoms: _489  and  _491
REMARK  214  A    between atoms: _491  and  _492
REMARK  215  A    between atoms: _491  and  _494
REMARK  216  A    between atoms: _494  and  _495
REMARK  217  A    between atoms: _495  and  _496
REMARK  218  A    between atoms: _496  and  _497
REMARK  219  A    between atoms: _497  and  _498
REMARK  220  A    between atoms: _502  and  _504
REMARK  221  A    between atoms: _504  and  _505
REMARK  222  A    between atoms: _504  and  _507
REMARK  223  A    between atoms: _510  and  _512
REMARK  224  A    between atoms: _512  and  _513
REMARK  225  A    between atoms: _512  and  _515
REMARK  226  A    between atoms: _515  and  _516
REMARK  227  A    between atoms: _516  and  _517
REMARK  228  A    between atoms: _517  and  _518
REMARK  229  A    between atoms: _518  and  _519
REMARK                            x       y       z     vdW  Elec       q    Type
REMARK                         _______ _______ _______ _____ _____    ______ ____
ROOT
ATOM      1  O   HOH     1      20.122  33.349   6.941  0.00  0.00    +0.000 OA
ENDROOT
TORSDOF 0
REMARK  Name = ../refined-set-2016/2qg0/2qg0_pocket.pdb
REMARK  229 active torsions:
REMARK  status: ('A' for Active; 'I' for Inactive)
REMARK    1  A    between atoms: _1  and  _3
REMARK    2  A    between atoms: _3  and  _4
REMARK    3  A    between atoms: _3  and  _6
REMARK    4  A    between atoms: _6  and  _7
REMARK    5  A    between atoms: _10  and  _12
REMARK    6  A    between atoms: _12  and  _13
REMARK    7  A    between atoms: _12  and  _15
REMARK    8  A    between atoms: _15  and  _16
REMARK    9  A    between atoms: _19  and  _21
REMARK   10  A    between atoms: _21  and  _22
REMARK   11  A    between atoms: _21  and  _24
REMARK   12  A    between atoms: _24  and  _25
REMARK   13  A    between atoms: _25  and  _26
REMARK   14  A    between atoms: _29  and  _31
REMARK   15  A    between atoms: _31  and  _32
REMARK   16  A    between atoms: _31  and  _34
REMARK   17  A    between atoms: _34  and  _35
REMARK   18  A    between atoms: _38  and  _40
REMARK   19  A    between atoms: _40  and  _41
REMARK   20  A    between atoms: _40  and  _43
REMARK   21  A    between atoms: _43  and  _44
REMARK   22  A    between atoms: _47  and  _49
REMARK   23  A    between atoms: _49  and  _50
REMARK   24  A    between atoms: _49  and  _52
REMARK   25  A    between atoms: _52  and  _53
REMARK   26  A    between atoms: _55  and  _57
REMARK   27  A    between atoms: _57  and  _58
REMARK   28  A    between atoms: _57  and  _60
REMARK   29  A    between atoms: _60  and  _61
REMARK   30  A    between atoms: _66  and  _68
REMARK   31  A    between atoms: _68  and  _69
REMARK   32  A    between atoms: _68  and  _71
REMARK   33  A    between atoms: _71  and  _72
REMARK   34  A    between atoms: _74  and  _76
REMARK   35  A    between atoms: _76  and  _77
REMARK   36  A    between atoms: _76  and  _79
REMARK   37  A    between atoms: _79  and  _80
REMARK   38  A    between atoms: _82  and  _84
REMARK   39  A    between atoms: _84  and  _85
REMARK   40  A    between atoms: _84  and  _87
REMARK   41  A    between atoms: _87  and  _88
REMARK   42  A    between atoms: _91  and  _93
REMARK   43  A    between atoms: _93  and  _94
REMARK   44  A    between atoms: _97  and  _99
REMARK   45  A    between atoms: _99  and  _100
REMARK   46  A    between atoms: _99  and  _102
REMARK   47  A    between atoms: _102  and  _103
REMARK   48  A    between atoms: _106  and  _108
REMARK   49  A    between atoms: _108  and  _109
REMARK   50  A    between atoms: _108  and  _111
REMARK   51  A    between atoms: _111  and  _112
REMARK   52  A    between atoms: _115  and  _117
REMARK   53  A    between atoms: _117  and  _118
REMARK   54  A    between atoms: _117  and  _120
REMARK   55  A    between atoms: _120  and  _121
REMARK   56  A    between atoms: _121  and  _122
REMARK   57  A    between atoms: _122  and  _123
REMARK   58  A    between atoms: _123  and  _124
REMARK   59  A    between atoms: _128  and  _130
REMARK   60  A    between atoms: _130  and  _131
REMARK   61  A    between atoms: _130  and  _133
REMARK   62  A    between atoms: _133  and  _134
REMARK   63  A    between atoms: _137  and  _139
REMARK   64  A    between atoms: _139  and  _140
REMARK   65  A    between atoms: _139  and  _142
REMARK   66  A    between atoms: _142  and  _143
REMARK   67  A    between atoms: _143  and  _144
REMARK   68  A    between atoms: _147  and  _149
REMARK   69  A    between atoms: _149  and  _150
REMARK   70  A    between atoms: _149  and  _152
REMARK   71  A    between atoms: _152  and  _153
REMARK   72  A    between atoms: _156  and  _158
REMARK   73  A    between atoms: _158  and  _159
REMARK   74  A    between atoms: _158  and  _161
REMARK   75  A    between atoms: _161  and  _162
REMARK   76  A    between atoms: _165  and  _167
REMARK   77  A    between atoms: _167  and  _168
REMARK   78  A    between atoms: _167  and  _170
REMARK   79  A    between atoms: _173  and  _175
REMARK   80  A    between atoms: _175  and  _176
REMARK   81  A    between atoms: _175  and  _178
REMARK   82  A    between atoms: _178  and  _179
REMARK   83  A    between atoms: _182  and  _184
REMARK   84  A    between atoms: _184  and  _185
REMARK   85  A    between atoms: _184  and  _187
REMARK   86  A    between atoms: _187  and  _188
REMARK   87  A    between atoms: _191  and  _193
REMARK   88  A    between atoms: _193  and  _194
REMARK   89  A    between atoms: _196  and  _198
REMARK   90  A    between atoms: _198  and  _199
REMARK   91  A    between atoms: _198  and  _201
REMARK   92  A    between atoms: _201  and  _202
REMARK   93  A    between atoms: _205  and  _207
REMARK   94  A    between atoms: _207  and  _208
REMARK   95  A    between atoms: _210  and  _212
REMARK   96  A    between atoms: _212  and  _213
REMARK   97  A    between atoms: _212  and  _215
REMARK   98  A    between atoms: _215  and  _216
REMARK   99  A    between atoms: _216  and  _217
REMARK  100  A    between atoms: _219  and  _221
REMARK  101  A    between atoms: _221  and  _222
REMARK  102  A    between atoms: _221  and  _224
REMARK  103  A    between atoms: _224  and  _225
REMARK  104  A    between atoms: _228  and  _230
REMARK  105  A    between atoms: _230  and  _231
REMARK  106  A    between atoms: _230  and  _233
REMARK  107  A    between atoms: _233  and  _234
REMARK  108  A    between atoms: _237  and  _239
REMARK  109  A    between atoms: _239  and  _240
REMARK  110  A    between atoms: _239  and  _242
REMARK  111  A    between atoms: _242  and  _243
REMARK  112  A    between atoms: _246  and  _248
REMARK  113  A    between atoms: _248  and  _249
REMARK  114  A    between atoms: _248  and  _251
REMARK  115  A    between atoms: _251  and  _252
REMARK  116  A    between atoms: _257  and  _259
REMARK  117  A    between atoms: _259  and  _260
REMARK  118  A    between atoms: _259  and  _262
REMARK  119  A    between atoms: _262  and  _263
REMARK  120  A    between atoms: _268  and  _270
REMARK  121  A    between atoms: _270  and  _271
REMARK  122  A    between atoms: _270  and  _273
REMARK  123  A    between atoms: _273  and  _274
REMARK  124  A    between atoms: _277  and  _279
REMARK  125  A    between atoms: _279  and  _280
REMARK  126  A    between atoms: _282  and  _284
REMARK  127  A    between atoms: _284  and  _285
REMARK  128  A    between atoms: _284  and  _287
REMARK  129  A    between atoms: _287  and  _288
REMARK  130  A    between atoms: _291  and  _293
REMARK  131  A    between atoms: _293  and  _294
REMARK  132  A    between atoms: _293  and  _296
REMARK  133  A    between atoms: _296  and  _297
REMARK  134  A    between atoms: _300  and  _302
REMARK  135  A    between atoms: _302  and  _303
REMARK  136  A    between atoms: _306  and  _308
REMARK  137  A    between atoms: _308  and  _309
REMARK  138  A    between atoms: _308  and  _311
REMARK  139  A    between atoms: _311  and  _312
REMARK  140  A    between atoms: _312  and  _313
REMARK  141  A    between atoms: _313  and  _314
REMARK  142  A    between atoms: _314  and  _315
REMARK  143  A    between atoms: _319  and  _321
REMARK  144  A    between atoms: _321  and  _322
REMARK  145  A    between atoms: _321  and  _324
REMARK  146  A    between atoms: _324  and  _325
REMARK  147  A    between atoms: _327  and  _329
REMARK  148  A    between atoms: _329  and  _330
REMARK  149  A    between atoms: _332  and  _334
REMARK  150  A    between atoms: _334  and  _335
REMARK  151  A    between atoms: _334  and  _337
REMARK  152  A    between atoms: _337  and  _338
REMARK  153  A    between atoms: _341  and  _343
REMARK  154  A    between atoms: _343  and  _344
REMARK  155  A    between atoms: _343  and  _346
REMARK  156  A    between atoms: _346  and  _347
REMARK  157  A    between atoms: _350  and  _352
REMARK  158  A    between atoms: _352  and  _353
REMARK  159  A    between atoms: _355  and  _357
REMARK  160  A    between atoms: _357  and  _358
REMARK  161  A    between atoms: _357  and  _360
REMARK  162  A    between atoms: _360  and  _361
REMARK  163  A    between atoms: _367  and  _369
REMARK  164  A    between atoms: _369  and  _370
REMARK  165  A    between atoms: _372  and  _374
REMARK  166  A    between atoms: _374  and  _375
REMARK  167  A    between atoms: _374  and  _377
REMARK  168  A    between atoms: _380  and  _382
REMARK  169  A    between atoms: _382  and  _383
REMARK  170  A    between atoms: _385  and  _387
REMARK  171  A    between atoms: _387  and  _388
REMARK  172  A    between atoms: _387  and  _390
REMARK  173  A    between atoms: _390  and  _391
REMARK  174  A    between atoms: _397  and  _399
REMARK  175  A    between atoms: _399  and  _400
REMARK  176  A    between atoms: _399  and  _402
REMARK  177  A    between atoms: _402  and  _403
REMARK  178  A    between atoms: _408  and  _409
REMARK  179  A    between atoms: _411  and  _413
REMARK  180  A    between atoms: _413  and  _414
REMARK  181  A    between atoms: _413  and  _416
REMARK  182  A    between atoms: _416  and  _417
REMARK  183  A    between atoms: _419  and  _421
REMARK  184  A    between atoms: _421  and  _422
REMARK  185  A    between atoms: _425  and  _427
REMARK  186  A    between atoms: _427  and  _428
REMARK  187  A    between atoms: _427  and  _430
REMARK  188  A    between atoms: _433  and  _435
REMARK  189  A    between atoms: _435  and  _436
REMARK  190  A    between atoms: _435  and  _438
REMARK  191  A    between atoms: _438  and  _439
REMARK  192  A    between atoms: _442  and  _444
REMARK  193  A    between atoms: _444  and  _445
REMARK  194  A    between atoms: _444  and  _447
REMARK  195  A    between atoms: _447  and  _448
REMARK  196  A    between atoms: _451  and  _453
REMARK  197  A    between atoms: _453  and  _454
REMARK  198  A    between atoms: _453  and  _456
REMARK  199  A    between atoms: _456  and  _457
REMARK  200  A    between atoms: _457  and  _458
REMARK  201  A    between atoms: _458  and  _459
REMARK  202  A    between atoms: _459  and  _460
REMARK  203  A    between atoms: _464  and  _466
REMARK  204  A    between atoms: _466  and  _467
REMARK  205  A    between atoms: _466  and  _469
REMARK  206  A    between atoms: _469  and  _470
REMARK  207  A    between atoms: _475  and  _477
REMARK  208  A    between atoms: _477  and  _478
REMARK  209  A    between atoms: _480  and  _482
REMARK  210  A    between atoms: _482  and  _483
REMARK  211  A    between atoms: _482  and  _485
REMARK  212  A    between atoms: _485  and  _486
REMARK  213  A    between atoms: _489  and  _491
REMARK  214  A    between atoms: _491  and  _492
REMARK  215  A    between atoms: _491  and  _494
REMARK  216  A    between atoms: _494  and  _495
REMARK  217  A    between atoms: _495  and  _496
REMARK  218  A    between atoms: _496  and  _497
REMARK  219  A    between atoms: _497  and  _498
REMARK  220  A    between atoms: _502  and  _504
REMARK  221  A    between atoms: _504  and  _505
REMARK  222  A    between atoms: _504  and  _507
REMARK  223  A    between atoms: _510  and  _512
REMARK  224  A    between atoms: _512  and  _513
REMARK  225  A    between atoms: _512  and  _515
REMARK  226  A    between atoms: _515  and  _516
REMARK  227  A    between atoms: _516  and  _517
REMARK  228  A    between atoms: _517  and  _518
REMARK  229  A    between atoms: _518  and  _519
REMARK                            x       y       z     vdW  Elec       q    Type
REMARK                         _______ _______ _______ _____ _____    ______ ____
ROOT
ATOM      1  O   HOH     1      19.432  16.268  16.008  0.00  0.00    +0.000 OA
ENDROOT
TORSDOF 0
REMARK  Name = ../refined-set-2016/2qg0/2qg0_pocket.pdb
REMARK  229 active torsions:
REMARK  status: ('A' for Active; 'I' for Inactive)
REMARK    1  A    between atoms: _1  and  _3
REMARK    2  A    between atoms: _3  and  _4
REMARK    3  A    between atoms: _3  and  _6
REMARK    4  A    between atoms: _6  and  _7
REMARK    5  A    between atoms: _10  and  _12
REMARK    6  A    between atoms: _12  and  _13
REMARK    7  A    between atoms: _12  and  _15
REMARK    8  A    between atoms: _15  and  _16
REMARK    9  A    between atoms: _19  and  _21
REMARK   10  A    between atoms: _21  and  _22
REMARK   11  A    between atoms: _21  and  _24
REMARK   12  A    between atoms: _24  and  _25
REMARK   13  A    between atoms: _25  and  _26
REMARK   14  A    between atoms: _29  and  _31
REMARK   15  A    between atoms: _31  and  _32
REMARK   16  A    between atoms: _31  and  _34
REMARK   17  A    between atoms: _34  and  _35
REMARK   18  A    between atoms: _38  and  _40
REMARK   19  A    between atoms: _40  and  _41
REMARK   20  A    between atoms: _40  and  _43
REMARK   21  A    between atoms: _43  and  _44
REMARK   22  A    between atoms: _47  and  _49
REMARK   23  A    between atoms: _49  and  _50
REMARK   24  A    between atoms: _49  and  _52
REMARK   25  A    between atoms: _52  and  _53
REMARK   26  A    between atoms: _55  and  _57
REMARK   27  A    between atoms: _57  and  _58
REMARK   28  A    between atoms: _57  and  _60
REMARK   29  A    between atoms: _60  and  _61
REMARK   30  A    between atoms: _66  and  _68
REMARK   31  A    between atoms: _68  and  _69
REMARK   32  A    between atoms: _68  and  _71
REMARK   33  A    between atoms: _71  and  _72
REMARK   34  A    between atoms: _74  and  _76
REMARK   35  A    between atoms: _76  and  _77
REMARK   36  A    between atoms: _76  and  _79
REMARK   37  A    between atoms: _79  and  _80
REMARK   38  A    between atoms: _82  and  _84
REMARK   39  A    between atoms: _84  and  _85
REMARK   40  A    between atoms: _84  and  _87
REMARK   41  A    between atoms: _87  and  _88
REMARK   42  A    between atoms: _91  and  _93
REMARK   43  A    between atoms: _93  and  _94
REMARK   44  A    between atoms: _97  and  _99
REMARK   45  A    between atoms: _99  and  _100
REMARK   46  A    between atoms: _99  and  _102
REMARK   47  A    between atoms: _102  and  _103
REMARK   48  A    between atoms: _106  and  _108
REMARK   49  A    between atoms: _108  and  _109
REMARK   50  A    between atoms: _108  and  _111
REMARK   51  A    between atoms: _111  and  _112
REMARK   52  A    between atoms: _115  and  _117
REMARK   53  A    between atoms: _117  and  _118
REMARK   54  A    between atoms: _117  and  _120
REMARK   55  A    between atoms: _120  and  _121
REMARK   56  A    between atoms: _121  and  _122
REMARK   57  A    between atoms: _122  and  _123
REMARK   58  A    between atoms: _123  and  _124
REMARK   59  A    between atoms: _128  and  _130
REMARK   60  A    between atoms: _130  and  _131
REMARK   61  A    between atoms: _130  and  _133
REMARK   62  A    between atoms: _133  and  _134
REMARK   63  A    between atoms: _137  and  _139
REMARK   64  A    between atoms: _139  and  _140
REMARK   65  A    between atoms: _139  and  _142
REMARK   66  A    between atoms: _142  and  _143
REMARK   67  A    between atoms: _143  and  _144
REMARK   68  A    between atoms: _147  and  _149
REMARK   69  A    between atoms: _149  and  _150
REMARK   70  A    between atoms: _149  and  _152
REMARK   71  A    between atoms: _152  and  _153
REMARK   72  A    between atoms: _156  and  _158
REMARK   73  A    between atoms: _158  and  _159
REMARK   74  A    between atoms: _158  and  _161
REMARK   75  A    between atoms: _161  and  _162
REMARK   76  A    between atoms: _165  and  _167
REMARK   77  A    between atoms: _167  and  _168
REMARK   78  A    between atoms: _167  and  _170
REMARK   79  A    between atoms: _173  and  _175
REMARK   80  A    between atoms: _175  and  _176
REMARK   81  A    between atoms: _175  and  _178
REMARK   82  A    between atoms: _178  and  _179
REMARK   83  A    between atoms: _182  and  _184
REMARK   84  A    between atoms: _184  and  _185
REMARK   85  A    between atoms: _184  and  _187
REMARK   86  A    between atoms: _187  and  _188
REMARK   87  A    between atoms: _191  and  _193
REMARK   88  A    between atoms: _193  and  _194
REMARK   89  A    between atoms: _196  and  _198
REMARK   90  A    between atoms: _198  and  _199
REMARK   91  A    between atoms: _198  and  _201
REMARK   92  A    between atoms: _201  and  _202
REMARK   93  A    between atoms: _205  and  _207
REMARK   94  A    between atoms: _207  and  _208
REMARK   95  A    between atoms: _210  and  _212
REMARK   96  A    between atoms: _212  and  _213
REMARK   97  A    between atoms: _212  and  _215
REMARK   98  A    between atoms: _215  and  _216
REMARK   99  A    between atoms: _216  and  _217
REMARK  100  A    between atoms: _219  and  _221
REMARK  101  A    between atoms: _221  and  _222
REMARK  102  A    between atoms: _221  and  _224
REMARK  103  A    between atoms: _224  and  _225
REMARK  104  A    between atoms: _228  and  _230
REMARK  105  A    between atoms: _230  and  _231
REMARK  106  A    between atoms: _230  and  _233
REMARK  107  A    between atoms: _233  and  _234
REMARK  108  A    between atoms: _237  and  _239
REMARK  109  A    between atoms: _239  and  _240
REMARK  110  A    between atoms: _239  and  _242
REMARK  111  A    between atoms: _242  and  _243
REMARK  112  A    between atoms: _246  and  _248
REMARK  113  A    between atoms: _248  and  _249
REMARK  114  A    between atoms: _248  and  _251
REMARK  115  A    between atoms: _251  and  _252
REMARK  116  A    between atoms: _257  and  _259
REMARK  117  A    between atoms: _259  and  _260
REMARK  118  A    between atoms: _259  and  _262
REMARK  119  A    between atoms: _262  and  _263
REMARK  120  A    between atoms: _268  and  _270
REMARK  121  A    between atoms: _270  and  _271
REMARK  122  A    between atoms: _270  and  _273
REMARK  123  A    between atoms: _273  and  _274
REMARK  124  A    between atoms: _277  and  _279
REMARK  125  A    between atoms: _279  and  _280
REMARK  126  A    between atoms: _282  and  _284
REMARK  127  A    between atoms: _284  and  _285
REMARK  128  A    between atoms: _284  and  _287
REMARK  129  A    between atoms: _287  and  _288
REMARK  130  A    between atoms: _291  and  _293
REMARK  131  A    between atoms: _293  and  _294
REMARK  132  A    between atoms: _293  and  _296
REMARK  133  A    between atoms: _296  and  _297
REMARK  134  A    between atoms: _300  and  _302
REMARK  135  A    between atoms: _302  and  _303
REMARK  136  A    between atoms: _306  and  _308
REMARK  137  A    between atoms: _308  and  _309
REMARK  138  A    between atoms: _308  and  _311
REMARK  139  A    between atoms: _311  and  _312
REMARK  140  A    between atoms: _312  and  _313
REMARK  141  A    between atoms: _313  and  _314
REMARK  142  A    between atoms: _314  and  _315
REMARK  143  A    between atoms: _319  and  _321
REMARK  144  A    between atoms: _321  and  _322
REMARK  145  A    between atoms: _321  and  _324
REMARK  146  A    between atoms: _324  and  _325
REMARK  147  A    between atoms: _327  and  _329
REMARK  148  A    between atoms: _329  and  _330
REMARK  149  A    between atoms: _332  and  _334
REMARK  150  A    between atoms: _334  and  _335
REMARK  151  A    between atoms: _334  and  _337
REMARK  152  A    between atoms: _337  and  _338
REMARK  153  A    between atoms: _341  and  _343
REMARK  154  A    between atoms: _343  and  _344
REMARK  155  A    between atoms: _343  and  _346
REMARK  156  A    between atoms: _346  and  _347
REMARK  157  A    between atoms: _350  and  _352
REMARK  158  A    between atoms: _352  and  _353
REMARK  159  A    between atoms: _355  and  _357
REMARK  160  A    between atoms: _357  and  _358
REMARK  161  A    between atoms: _357  and  _360
REMARK  162  A    between atoms: _360  and  _361
REMARK  163  A    between atoms: _367  and  _369
REMARK  164  A    between atoms: _369  and  _370
REMARK  165  A    between atoms: _372  and  _374
REMARK  166  A    between atoms: _374  and  _375
REMARK  167  A    between atoms: _374  and  _377
REMARK  168  A    between atoms: _380  and  _382
REMARK  169  A    between atoms: _382  and  _383
REMARK  170  A    between atoms: _385  and  _387
REMARK  171  A    between atoms: _387  and  _388
REMARK  172  A    between atoms: _387  and  _390
REMARK  173  A    between atoms: _390  and  _391
REMARK  174  A    between atoms: _397  and  _399
REMARK  175  A    between atoms: _399  and  _400
REMARK  176  A    between atoms: _399  and  _402
REMARK  177  A    between atoms: _402  and  _403
REMARK  178  A    between atoms: _408  and  _409
REMARK  179  A    between atoms: _411  and  _413
REMARK  180  A    between atoms: _413  and  _414
REMARK  181  A    between atoms: _413  and  _416
REMARK  182  A    between atoms: _416  and  _417
REMARK  183  A    between atoms: _419  and  _421
REMARK  184  A    between atoms: _421  and  _422
REMARK  185  A    between atoms: _425  and  _427
REMARK  186  A    between atoms: _427  and  _428
REMARK  187  A    between atoms: _427  and  _430
REMARK  188  A    between atoms: _433  and  _435
REMARK  189  A    between atoms: _435  and  _436
REMARK  190  A    between atoms: _435  and  _438
REMARK  191  A    between atoms: _438  and  _439
REMARK  192  A    between atoms: _442  and  _444
REMARK  193  A    between atoms: _444  and  _445
REMARK  194  A    between atoms: _444  and  _447
REMARK  195  A    between atoms: _447  and  _448
REMARK  196  A    between atoms: _451  and  _453
REMARK  197  A    between atoms: _453  and  _454
REMARK  198  A    between atoms: _453  and  _456
REMARK  199  A    between atoms: _456  and  _457
REMARK  200  A    between atoms: _457  and  _458
REMARK  201  A    between atoms: _458  and  _459
REMARK  202  A    between atoms: _459  and  _460
REMARK  203  A    between atoms: _464  and  _466
REMARK  204  A    between atoms: _466  and  _467
REMARK  205  A    between atoms: _466  and  _469
REMARK  206  A    between atoms: _469  and  _470
REMARK  207  A    between atoms: _475  and  _477
REMARK  208  A    between atoms: _477  and  _478
REMARK  209  A    between atoms: _480  and  _482
REMARK  210  A    between atoms: _482  and  _483
REMARK  211  A    between atoms: _482  and  _485
REMARK  212  A    between atoms: _485  and  _486
REMARK  213  A    between atoms: _489  and  _491
REMARK  214  A    between atoms: _491  and  _492
REMARK  215  A    between atoms: _491  and  _494
REMARK  216  A    between atoms: _494  and  _495
REMARK  217  A    between atoms: _495  and  _496
REMARK  218  A    between atoms: _496  and  _497
REMARK  219  A    between atoms: _497  and  _498
REMARK  220  A    between atoms: _502  and  _504
REMARK  221  A    between atoms: _504  and  _505
REMARK  222  A    between atoms: _504  and  _507
REMARK  223  A    between atoms: _510  and  _512
REMARK  224  A    between atoms: _512  and  _513
REMARK  225  A    between atoms: _512  and  _515
REMARK  226  A    between atoms: _515  and  _516
REMARK  227  A    between atoms: _516  and  _517
REMARK  228  A    between atoms: _517  and  _518
REMARK  229  A    between atoms: _518  and  _519
REMARK                            x       y       z     vdW  Elec       q    Type
REMARK                         _______ _______ _______ _____ _____    ______ ____
ROOT
ATOM      1  O   HOH     1      21.903  32.848  14.817  0.00  0.00    +0.000 OA
ENDROOT
TORSDOF 0
REMARK  Name = ../refined-set-2016/2qg0/2qg0_pocket.pdb
REMARK  229 active torsions:
REMARK  status: ('A' for Active; 'I' for Inactive)
REMARK    1  A    between atoms: _1  and  _3
REMARK    2  A    between atoms: _3  and  _4
REMARK    3  A    between atoms: _3  and  _6
REMARK    4  A    between atoms: _6  and  _7
REMARK    5  A    between atoms: _10  and  _12
REMARK    6  A    between atoms: _12  and  _13
REMARK    7  A    between atoms: _12  and  _15
REMARK    8  A    between atoms: _15  and  _16
REMARK    9  A    between atoms: _19  and  _21
REMARK   10  A    between atoms: _21  and  _22
REMARK   11  A    between atoms: _21  and  _24
REMARK   12  A    between atoms: _24  and  _25
REMARK   13  A    between atoms: _25  and  _26
REMARK   14  A    between atoms: _29  and  _31
REMARK   15  A    between atoms: _31  and  _32
REMARK   16  A    between atoms: _31  and  _34
REMARK   17  A    between atoms: _34  and  _35
REMARK   18  A    between atoms: _38  and  _40
REMARK   19  A    between atoms: _40  and  _41
REMARK   20  A    between atoms: _40  and  _43
REMARK   21  A    between atoms: _43  and  _44
REMARK   22  A    between atoms: _47  and  _49
REMARK   23  A    between atoms: _49  and  _50
REMARK   24  A    between atoms: _49  and  _52
REMARK   25  A    between atoms: _52  and  _53
REMARK   26  A    between atoms: _55  and  _57
REMARK   27  A    between atoms: _57  and  _58
REMARK   28  A    between atoms: _57  and  _60
REMARK   29  A    between atoms: _60  and  _61
REMARK   30  A    between atoms: _66  and  _68
REMARK   31  A    between atoms: _68  and  _69
REMARK   32  A    between atoms: _68  and  _71
REMARK   33  A    between atoms: _71  and  _72
REMARK   34  A    between atoms: _74  and  _76
REMARK   35  A    between atoms: _76  and  _77
REMARK   36  A    between atoms: _76  and  _79
REMARK   37  A    between atoms: _79  and  _80
REMARK   38  A    between atoms: _82  and  _84
REMARK   39  A    between atoms: _84  and  _85
REMARK   40  A    between atoms: _84  and  _87
REMARK   41  A    between atoms: _87  and  _88
REMARK   42  A    between atoms: _91  and  _93
REMARK   43  A    between atoms: _93  and  _94
REMARK   44  A    between atoms: _97  and  _99
REMARK   45  A    between atoms: _99  and  _100
REMARK   46  A    between atoms: _99  and  _102
REMARK   47  A    between atoms: _102  and  _103
REMARK   48  A    between atoms: _106  and  _108
REMARK   49  A    between atoms: _108  and  _109
REMARK   50  A    between atoms: _108  and  _111
REMARK   51  A    between atoms: _111  and  _112
REMARK   52  A    between atoms: _115  and  _117
REMARK   53  A    between atoms: _117  and  _118
REMARK   54  A    between atoms: _117  and  _120
REMARK   55  A    between atoms: _120  and  _121
REMARK   56  A    between atoms: _121  and  _122
REMARK   57  A    between atoms: _122  and  _123
REMARK   58  A    between atoms: _123  and  _124
REMARK   59  A    between atoms: _128  and  _130
REMARK   60  A    between atoms: _130  and  _131
REMARK   61  A    between atoms: _130  and  _133
REMARK   62  A    between atoms: _133  and  _134
REMARK   63  A    between atoms: _137  and  _139
REMARK   64  A    between atoms: _139  and  _140
REMARK   65  A    between atoms: _139  and  _142
REMARK   66  A    between atoms: _142  and  _143
REMARK   67  A    between atoms: _143  and  _144
REMARK   68  A    between atoms: _147  and  _149
REMARK   69  A    between atoms: _149  and  _150
REMARK   70  A    between atoms: _149  and  _152
REMARK   71  A    between atoms: _152  and  _153
REMARK   72  A    between atoms: _156  and  _158
REMARK   73  A    between atoms: _158  and  _159
REMARK   74  A    between atoms: _158  and  _161
REMARK   75  A    between atoms: _161  and  _162
REMARK   76  A    between atoms: _165  and  _167
REMARK   77  A    between atoms: _167  and  _168
REMARK   78  A    between atoms: _167  and  _170
REMARK   79  A    between atoms: _173  and  _175
REMARK   80  A    between atoms: _175  and  _176
REMARK   81  A    between atoms: _175  and  _178
REMARK   82  A    between atoms: _178  and  _179
REMARK   83  A    between atoms: _182  and  _184
REMARK   84  A    between atoms: _184  and  _185
REMARK   85  A    between atoms: _184  and  _187
REMARK   86  A    between atoms: _187  and  _188
REMARK   87  A    between atoms: _191  and  _193
REMARK   88  A    between atoms: _193  and  _194
REMARK   89  A    between atoms: _196  and  _198
REMARK   90  A    between atoms: _198  and  _199
REMARK   91  A    between atoms: _198  and  _201
REMARK   92  A    between atoms: _201  and  _202
REMARK   93  A    between atoms: _205  and  _207
REMARK   94  A    between atoms: _207  and  _208
REMARK   95  A    between atoms: _210  and  _212
REMARK   96  A    between atoms: _212  and  _213
REMARK   97  A    between atoms: _212  and  _215
REMARK   98  A    between atoms: _215  and  _216
REMARK   99  A    between atoms: _216  and  _217
REMARK  100  A    between atoms: _219  and  _221
REMARK  101  A    between atoms: _221  and  _222
REMARK  102  A    between atoms: _221  and  _224
REMARK  103  A    between atoms: _224  and  _225
REMARK  104  A    between atoms: _228  and  _230
REMARK  105  A    between atoms: _230  and  _231
REMARK  106  A    between atoms: _230  and  _233
REMARK  107  A    between atoms: _233  and  _234
REMARK  108  A    between atoms: _237  and  _239
REMARK  109  A    between atoms: _239  and  _240
REMARK  110  A    between atoms: _239  and  _242
REMARK  111  A    between atoms: _242  and  _243
REMARK  112  A    between atoms: _246  and  _248
REMARK  113  A    between atoms: _248  and  _249
REMARK  114  A    between atoms: _248  and  _251
REMARK  115  A    between atoms: _251  and  _252
REMARK  116  A    between atoms: _257  and  _259
REMARK  117  A    between atoms: _259  and  _260
REMARK  118  A    between atoms: _259  and  _262
REMARK  119  A    between atoms: _262  and  _263
REMARK  120  A    between atoms: _268  and  _270
REMARK  121  A    between atoms: _270  and  _271
REMARK  122  A    between atoms: _270  and  _273
REMARK  123  A    between atoms: _273  and  _274
REMARK  124  A    between atoms: _277  and  _279
REMARK  125  A    between atoms: _279  and  _280
REMARK  126  A    between atoms: _282  and  _284
REMARK  127  A    between atoms: _284  and  _285
REMARK  128  A    between atoms: _284  and  _287
REMARK  129  A    between atoms: _287  and  _288
REMARK  130  A    between atoms: _291  and  _293
REMARK  131  A    between atoms: _293  and  _294
REMARK  132  A    between atoms: _293  and  _296
REMARK  133  A    between atoms: _296  and  _297
REMARK  134  A    between atoms: _300  and  _302
REMARK  135  A    between atoms: _302  and  _303
REMARK  136  A    between atoms: _306  and  _308
REMARK  137  A    between atoms: _308  and  _309
REMARK  138  A    between atoms: _308  and  _311
REMARK  139  A    between atoms: _311  and  _312
REMARK  140  A    between atoms: _312  and  _313
REMARK  141  A    between atoms: _313  and  _314
REMARK  142  A    between atoms: _314  and  _315
REMARK  143  A    between atoms: _319  and  _321
REMARK  144  A    between atoms: _321  and  _322
REMARK  145  A    between atoms: _321  and  _324
REMARK  146  A    between atoms: _324  and  _325
REMARK  147  A    between atoms: _327  and  _329
REMARK  148  A    between atoms: _329  and  _330
REMARK  149  A    between atoms: _332  and  _334
REMARK  150  A    between atoms: _334  and  _335
REMARK  151  A    between atoms: _334  and  _337
REMARK  152  A    between atoms: _337  and  _338
REMARK  153  A    between atoms: _341  and  _343
REMARK  154  A    between atoms: _343  and  _344
REMARK  155  A    between atoms: _343  and  _346
REMARK  156  A    between atoms: _346  and  _347
REMARK  157  A    between atoms: _350  and  _352
REMARK  158  A    between atoms: _352  and  _353
REMARK  159  A    between atoms: _355  and  _357
REMARK  160  A    between atoms: _357  and  _358
REMARK  161  A    between atoms: _357  and  _360
REMARK  162  A    between atoms: _360  and  _361
REMARK  163  A    between atoms: _367  and  _369
REMARK  164  A    between atoms: _369  and  _370
REMARK  165  A    between atoms: _372  and  _374
REMARK  166  A    between atoms: _374  and  _375
REMARK  167  A    between atoms: _374  and  _377
REMARK  168  A    between atoms: _380  and  _382
REMARK  169  A    between atoms: _382  and  _383
REMARK  170  A    between atoms: _385  and  _387
REMARK  171  A    between atoms: _387  and  _388
REMARK  172  A    between atoms: _387  and  _390
REMARK  173  A    between atoms: _390  and  _391
REMARK  174  A    between atoms: _397  and  _399
REMARK  175  A    between atoms: _399  and  _400
REMARK  176  A    between atoms: _399  and  _402
REMARK  177  A    between atoms: _402  and  _403
REMARK  178  A    between atoms: _408  and  _409
REMARK  179  A    between atoms: _411  and  _413
REMARK  180  A    between atoms: _413  and  _414
REMARK  181  A    between atoms: _413  and  _416
REMARK  182  A    between atoms: _416  and  _417
REMARK  183  A    between atoms: _419  and  _421
REMARK  184  A    between atoms: _421  and  _422
REMARK  185  A    between atoms: _425  and  _427
REMARK  186  A    between atoms: _427  and  _428
REMARK  187  A    between atoms: _427  and  _430
REMARK  188  A    between atoms: _433  and  _435
REMARK  189  A    between atoms: _435  and  _436
REMARK  190  A    between atoms: _435  and  _438
REMARK  191  A    between atoms: _438  and  _439
REMARK  192  A    between atoms: _442  and  _444
REMARK  193  A    between atoms: _444  and  _445
REMARK  194  A    between atoms: _444  and  _447
REMARK  195  A    between atoms: _447  and  _448
REMARK  196  A    between atoms: _451  and  _453
REMARK  197  A    between atoms: _453  and  _454
REMARK  198  A    between atoms: _453  and  _456
REMARK  199  A    between atoms: _456  and  _457
REMARK  200  A    between atoms: _457  and  _458
REMARK  201  A    between atoms: _458  and  _459
REMARK  202  A    between atoms: _459  and  _460
REMARK  203  A    between atoms: _464  and  _466
REMARK  204  A    between atoms: _466  and  _467
REMARK  205  A    between atoms: _466  and  _469
REMARK  206  A    between atoms: _469  and  _470
REMARK  207  A    between atoms: _475  and  _477
REMARK  208  A    between atoms: _477  and  _478
REMARK  209  A    between atoms: _480  and  _482
REMARK  210  A    between atoms: _482  and  _483
REMARK  211  A    between atoms: _482  and  _485
REMARK  212  A    between atoms: _485  and  _486
REMARK  213  A    between atoms: _489  and  _491
REMARK  214  A    between atoms: _491  and  _492
REMARK  215  A    between atoms: _491  and  _494
REMARK  216  A    between atoms: _494  and  _495
REMARK  217  A    between atoms: _495  and  _496
REMARK  218  A    between atoms: _496  and  _497
REMARK  219  A    between atoms: _497  and  _498
REMARK  220  A    between atoms: _502  and  _504
REMARK  221  A    between atoms: _504  and  _505
REMARK  222  A    between atoms: _504  and  _507
REMARK  223  A    between atoms: _510  and  _512
REMARK  224  A    between atoms: _512  and  _513
REMARK  225  A    between atoms: _512  and  _515
REMARK  226  A    between atoms: _515  and  _516
REMARK  227  A    between atoms: _516  and  _517
REMARK  228  A    between atoms: _517  and  _518
REMARK  229  A    between atoms: _518  and  _519
REMARK                            x       y       z     vdW  Elec       q    Type
REMARK                         _______ _______ _______ _____ _____    ______ ____
ROOT
ATOM      1  O   HOH     1      27.760  21.948  14.518  0.00  0.00    +0.000 OA
ENDROOT
TORSDOF 0
REMARK  Name = ../refined-set-2016/2qg0/2qg0_pocket.pdb
REMARK  229 active torsions:
REMARK  status: ('A' for Active; 'I' for Inactive)
REMARK    1  A    between atoms: _1  and  _3
REMARK    2  A    between atoms: _3  and  _4
REMARK    3  A    between atoms: _3  and  _6
REMARK    4  A    between atoms: _6  and  _7
REMARK    5  A    between atoms: _10  and  _12
REMARK    6  A    between atoms: _12  and  _13
REMARK    7  A    between atoms: _12  and  _15
REMARK    8  A    between atoms: _15  and  _16
REMARK    9  A    between atoms: _19  and  _21
REMARK   10  A    between atoms: _21  and  _22
REMARK   11  A    between atoms: _21  and  _24
REMARK   12  A    between atoms: _24  and  _25
REMARK   13  A    between atoms: _25  and  _26
REMARK   14  A    between atoms: _29  and  _31
REMARK   15  A    between atoms: _31  and  _32
REMARK   16  A    between atoms: _31  and  _34
REMARK   17  A    between atoms: _34  and  _35
REMARK   18  A    between atoms: _38  and  _40
REMARK   19  A    between atoms: _40  and  _41
REMARK   20  A    between atoms: _40  and  _43
REMARK   21  A    between atoms: _43  and  _44
REMARK   22  A    between atoms: _47  and  _49
REMARK   23  A    between atoms: _49  and  _50
REMARK   24  A    between atoms: _49  and  _52
REMARK   25  A    between atoms: _52  and  _53
REMARK   26  A    between atoms: _55  and  _57
REMARK   27  A    between atoms: _57  and  _58
REMARK   28  A    between atoms: _57  and  _60
REMARK   29  A    between atoms: _60  and  _61
REMARK   30  A    between atoms: _66  and  _68
REMARK   31  A    between atoms: _68  and  _69
REMARK   32  A    between atoms: _68  and  _71
REMARK   33  A    between atoms: _71  and  _72
REMARK   34  A    between atoms: _74  and  _76
REMARK   35  A    between atoms: _76  and  _77
REMARK   36  A    between atoms: _76  and  _79
REMARK   37  A    between atoms: _79  and  _80
REMARK   38  A    between atoms: _82  and  _84
REMARK   39  A    between atoms: _84  and  _85
REMARK   40  A    between atoms: _84  and  _87
REMARK   41  A    between atoms: _87  and  _88
REMARK   42  A    between atoms: _91  and  _93
REMARK   43  A    between atoms: _93  and  _94
REMARK   44  A    between atoms: _97  and  _99
REMARK   45  A    between atoms: _99  and  _100
REMARK   46  A    between atoms: _99  and  _102
REMARK   47  A    between atoms: _102  and  _103
REMARK   48  A    between atoms: _106  and  _108
REMARK   49  A    between atoms: _108  and  _109
REMARK   50  A    between atoms: _108  and  _111
REMARK   51  A    between atoms: _111  and  _112
REMARK   52  A    between atoms: _115  and  _117
REMARK   53  A    between atoms: _117  and  _118
REMARK   54  A    between atoms: _117  and  _120
REMARK   55  A    between atoms: _120  and  _121
REMARK   56  A    between atoms: _121  and  _122
REMARK   57  A    between atoms: _122  and  _123
REMARK   58  A    between atoms: _123  and  _124
REMARK   59  A    between atoms: _128  and  _130
REMARK   60  A    between atoms: _130  and  _131
REMARK   61  A    between atoms: _130  and  _133
REMARK   62  A    between atoms: _133  and  _134
REMARK   63  A    between atoms: _137  and  _139
REMARK   64  A    between atoms: _139  and  _140
REMARK   65  A    between atoms: _139  and  _142
REMARK   66  A    between atoms: _142  and  _143
REMARK   67  A    between atoms: _143  and  _144
REMARK   68  A    between atoms: _147  and  _149
REMARK   69  A    between atoms: _149  and  _150
REMARK   70  A    between atoms: _149  and  _152
REMARK   71  A    between atoms: _152  and  _153
REMARK   72  A    between atoms: _156  and  _158
REMARK   73  A    between atoms: _158  and  _159
REMARK   74  A    between atoms: _158  and  _161
REMARK   75  A    between atoms: _161  and  _162
REMARK   76  A    between atoms: _165  and  _167
REMARK   77  A    between atoms: _167  and  _168
REMARK   78  A    between atoms: _167  and  _170
REMARK   79  A    between atoms: _173  and  _175
REMARK   80  A    between atoms: _175  and  _176
REMARK   81  A    between atoms: _175  and  _178
REMARK   82  A    between atoms: _178  and  _179
REMARK   83  A    between atoms: _182  and  _184
REMARK   84  A    between atoms: _184  and  _185
REMARK   85  A    between atoms: _184  and  _187
REMARK   86  A    between atoms: _187  and  _188
REMARK   87  A    between atoms: _191  and  _193
REMARK   88  A    between atoms: _193  and  _194
REMARK   89  A    between atoms: _196  and  _198
REMARK   90  A    between atoms: _198  and  _199
REMARK   91  A    between atoms: _198  and  _201
REMARK   92  A    between atoms: _201  and  _202
REMARK   93  A    between atoms: _205  and  _207
REMARK   94  A    between atoms: _207  and  _208
REMARK   95  A    between atoms: _210  and  _212
REMARK   96  A    between atoms: _212  and  _213
REMARK   97  A    between atoms: _212  and  _215
REMARK   98  A    between atoms: _215  and  _216
REMARK   99  A    between atoms: _216  and  _217
REMARK  100  A    between atoms: _219  and  _221
REMARK  101  A    between atoms: _221  and  _222
REMARK  102  A    between atoms: _221  and  _224
REMARK  103  A    between atoms: _224  and  _225
REMARK  104  A    between atoms: _228  and  _230
REMARK  105  A    between atoms: _230  and  _231
REMARK  106  A    between atoms: _230  and  _233
REMARK  107  A    between atoms: _233  and  _234
REMARK  108  A    between atoms: _237  and  _239
REMARK  109  A    between atoms: _239  and  _240
REMARK  110  A    between atoms: _239  and  _242
REMARK  111  A    between atoms: _242  and  _243
REMARK  112  A    between atoms: _246  and  _248
REMARK  113  A    between atoms: _248  and  _249
REMARK  114  A    between atoms: _248  and  _251
REMARK  115  A    between atoms: _251  and  _252
REMARK  116  A    between atoms: _257  and  _259
REMARK  117  A    between atoms: _259  and  _260
REMARK  118  A    between atoms: _259  and  _262
REMARK  119  A    between atoms: _262  and  _263
REMARK  120  A    between atoms: _268  and  _270
REMARK  121  A    between atoms: _270  and  _271
REMARK  122  A    between atoms: _270  and  _273
REMARK  123  A    between atoms: _273  and  _274
REMARK  124  A    between atoms: _277  and  _279
REMARK  125  A    between atoms: _279  and  _280
REMARK  126  A    between atoms: _282  and  _284
REMARK  127  A    between atoms: _284  and  _285
REMARK  128  A    between atoms: _284  and  _287
REMARK  129  A    between atoms: _287  and  _288
REMARK  130  A    between atoms: _291  and  _293
REMARK  131  A    between atoms: _293  and  _294
REMARK  132  A    between atoms: _293  and  _296
REMARK  133  A    between atoms: _296  and  _297
REMARK  134  A    between atoms: _300  and  _302
REMARK  135  A    between atoms: _302  and  _303
REMARK  136  A    between atoms: _306  and  _308
REMARK  137  A    between atoms: _308  and  _309
REMARK  138  A    between atoms: _308  and  _311
REMARK  139  A    between atoms: _311  and  _312
REMARK  140  A    between atoms: _312  and  _313
REMARK  141  A    between atoms: _313  and  _314
REMARK  142  A    between atoms: _314  and  _315
REMARK  143  A    between atoms: _319  and  _321
REMARK  144  A    between atoms: _321  and  _322
REMARK  145  A    between atoms: _321  and  _324
REMARK  146  A    between atoms: _324  and  _325
REMARK  147  A    between atoms: _327  and  _329
REMARK  148  A    between atoms: _329  and  _330
REMARK  149  A    between atoms: _332  and  _334
REMARK  150  A    between atoms: _334  and  _335
REMARK  151  A    between atoms: _334  and  _337
REMARK  152  A    between atoms: _337  and  _338
REMARK  153  A    between atoms: _341  and  _343
REMARK  154  A    between atoms: _343  and  _344
REMARK  155  A    between atoms: _343  and  _346
REMARK  156  A    between atoms: _346  and  _347
REMARK  157  A    between atoms: _350  and  _352
REMARK  158  A    between atoms: _352  and  _353
REMARK  159  A    between atoms: _355  and  _357
REMARK  160  A    between atoms: _357  and  _358
REMARK  161  A    between atoms: _357  and  _360
REMARK  162  A    between atoms: _360  and  _361
REMARK  163  A    between atoms: _367  and  _369
REMARK  164  A    between atoms: _369  and  _370
REMARK  165  A    between atoms: _372  and  _374
REMARK  166  A    between atoms: _374  and  _375
REMARK  167  A    between atoms: _374  and  _377
REMARK  168  A    between atoms: _380  and  _382
REMARK  169  A    between atoms: _382  and  _383
REMARK  170  A    between atoms: _385  and  _387
REMARK  171  A    between atoms: _387  and  _388
REMARK  172  A    between atoms: _387  and  _390
REMARK  173  A    between atoms: _390  and  _391
REMARK  174  A    between atoms: _397  and  _399
REMARK  175  A    between atoms: _399  and  _400
REMARK  176  A    between atoms: _399  and  _402
REMARK  177  A    between atoms: _402  and  _403
REMARK  178  A    between atoms: _408  and  _409
REMARK  179  A    between atoms: _411  and  _413
REMARK  180  A    between atoms: _413  and  _414
REMARK  181  A    between atoms: _413  and  _416
REMARK  182  A    between atoms: _416  and  _417
REMARK  183  A    between atoms: _419  and  _421
REMARK  184  A    between atoms: _421  and  _422
REMARK  185  A    between atoms: _425  and  _427
REMARK  186  A    between atoms: _427  and  _428
REMARK  187  A    between atoms: _427  and  _430
REMARK  188  A    between atoms: _433  and  _435
REMARK  189  A    between atoms: _435  and  _436
REMARK  190  A    between atoms: _435  and  _438
REMARK  191  A    between atoms: _438  and  _439
REMARK  192  A    between atoms: _442  and  _444
REMARK  193  A    between atoms: _444  and  _445
REMARK  194  A    between atoms: _444  and  _447
REMARK  195  A    between atoms: _447  and  _448
REMARK  196  A    between atoms: _451  and  _453
REMARK  197  A    between atoms: _453  and  _454
REMARK  198  A    between atoms: _453  and  _456
REMARK  199  A    between atoms: _456  and  _457
REMARK  200  A    between atoms: _457  and  _458
REMARK  201  A    between atoms: _458  and  _459
REMARK  202  A    between atoms: _459  and  _460
REMARK  203  A    between atoms: _464  and  _466
REMARK  204  A    between atoms: _466  and  _467
REMARK  205  A    between atoms: _466  and  _469
REMARK  206  A    between atoms: _469  and  _470
REMARK  207  A    between atoms: _475  and  _477
REMARK  208  A    between atoms: _477  and  _478
REMARK  209  A    between atoms: _480  and  _482
REMARK  210  A    between atoms: _482  and  _483
REMARK  211  A    between atoms: _482  and  _485
REMARK  212  A    between atoms: _485  and  _486
REMARK  213  A    between atoms: _489  and  _491
REMARK  214  A    between atoms: _491  and  _492
REMARK  215  A    between atoms: _491  and  _494
REMARK  216  A    between atoms: _494  and  _495
REMARK  217  A    between atoms: _495  and  _496
REMARK  218  A    between atoms: _496  and  _497
REMARK  219  A    between atoms: _497  and  _498
REMARK  220  A    between atoms: _502  and  _504
REMARK  221  A    between atoms: _504  and  _505
REMARK  222  A    between atoms: _504  and  _507
REMARK  223  A    between atoms: _510  and  _512
REMARK  224  A    between atoms: _512  and  _513
REMARK  225  A    between atoms: _512  and  _515
REMARK  226  A    between atoms: _515  and  _516
REMARK  227  A    between atoms: _516  and  _517
REMARK  228  A    between atoms: _517  and  _518
REMARK  229  A    between atoms: _518  and  _519
REMARK                            x       y       z     vdW  Elec       q    Type
REMARK                         _______ _______ _______ _____ _____    ______ ____
ROOT
ATOM      1  O   HOH     1      26.764  20.968  17.712  0.00  0.00    +0.000 OA
ENDROOT
TORSDOF 0
REMARK  Name = ../refined-set-2016/2qg0/2qg0_pocket.pdb
REMARK  229 active torsions:
REMARK  status: ('A' for Active; 'I' for Inactive)
REMARK    1  A    between atoms: _1  and  _3
REMARK    2  A    between atoms: _3  and  _4
REMARK    3  A    between atoms: _3  and  _6
REMARK    4  A    between atoms: _6  and  _7
REMARK    5  A    between atoms: _10  and  _12
REMARK    6  A    between atoms: _12  and  _13
REMARK    7  A    between atoms: _12  and  _15
REMARK    8  A    between atoms: _15  and  _16
REMARK    9  A    between atoms: _19  and  _21
REMARK   10  A    between atoms: _21  and  _22
REMARK   11  A    between atoms: _21  and  _24
REMARK   12  A    between atoms: _24  and  _25
REMARK   13  A    between atoms: _25  and  _26
REMARK   14  A    between atoms: _29  and  _31
REMARK   15  A    between atoms: _31  and  _32
REMARK   16  A    between atoms: _31  and  _34
REMARK   17  A    between atoms: _34  and  _35
REMARK   18  A    between atoms: _38  and  _40
REMARK   19  A    between atoms: _40  and  _41
REMARK   20  A    between atoms: _40  and  _43
REMARK   21  A    between atoms: _43  and  _44
REMARK   22  A    between atoms: _47  and  _49
REMARK   23  A    between atoms: _49  and  _50
REMARK   24  A    between atoms: _49  and  _52
REMARK   25  A    between atoms: _52  and  _53
REMARK   26  A    between atoms: _55  and  _57
REMARK   27  A    between atoms: _57  and  _58
REMARK   28  A    between atoms: _57  and  _60
REMARK   29  A    between atoms: _60  and  _61
REMARK   30  A    between atoms: _66  and  _68
REMARK   31  A    between atoms: _68  and  _69
REMARK   32  A    between atoms: _68  and  _71
REMARK   33  A    between atoms: _71  and  _72
REMARK   34  A    between atoms: _74  and  _76
REMARK   35  A    between atoms: _76  and  _77
REMARK   36  A    between atoms: _76  and  _79
REMARK   37  A    between atoms: _79  and  _80
REMARK   38  A    between atoms: _82  and  _84
REMARK   39  A    between atoms: _84  and  _85
REMARK   40  A    between atoms: _84  and  _87
REMARK   41  A    between atoms: _87  and  _88
REMARK   42  A    between atoms: _91  and  _93
REMARK   43  A    between atoms: _93  and  _94
REMARK   44  A    between atoms: _97  and  _99
REMARK   45  A    between atoms: _99  and  _100
REMARK   46  A    between atoms: _99  and  _102
REMARK   47  A    between atoms: _102  and  _103
REMARK   48  A    between atoms: _106  and  _108
REMARK   49  A    between atoms: _108  and  _109
REMARK   50  A    between atoms: _108  and  _111
REMARK   51  A    between atoms: _111  and  _112
REMARK   52  A    between atoms: _115  and  _117
REMARK   53  A    between atoms: _117  and  _118
REMARK   54  A    between atoms: _117  and  _120
REMARK   55  A    between atoms: _120  and  _121
REMARK   56  A    between atoms: _121  and  _122
REMARK   57  A    between atoms: _122  and  _123
REMARK   58  A    between atoms: _123  and  _124
REMARK   59  A    between atoms: _128  and  _130
REMARK   60  A    between atoms: _130  and  _131
REMARK   61  A    between atoms: _130  and  _133
REMARK   62  A    between atoms: _133  and  _134
REMARK   63  A    between atoms: _137  and  _139
REMARK   64  A    between atoms: _139  and  _140
REMARK   65  A    between atoms: _139  and  _142
REMARK   66  A    between atoms: _142  and  _143
REMARK   67  A    between atoms: _143  and  _144
REMARK   68  A    between atoms: _147  and  _149
REMARK   69  A    between atoms: _149  and  _150
REMARK   70  A    between atoms: _149  and  _152
REMARK   71  A    between atoms: _152  and  _153
REMARK   72  A    between atoms: _156  and  _158
REMARK   73  A    between atoms: _158  and  _159
REMARK   74  A    between atoms: _158  and  _161
REMARK   75  A    between atoms: _161  and  _162
REMARK   76  A    between atoms: _165  and  _167
REMARK   77  A    between atoms: _167  and  _168
REMARK   78  A    between atoms: _167  and  _170
REMARK   79  A    between atoms: _173  and  _175
REMARK   80  A    between atoms: _175  and  _176
REMARK   81  A    between atoms: _175  and  _178
REMARK   82  A    between atoms: _178  and  _179
REMARK   83  A    between atoms: _182  and  _184
REMARK   84  A    between atoms: _184  and  _185
REMARK   85  A    between atoms: _184  and  _187
REMARK   86  A    between atoms: _187  and  _188
REMARK   87  A    between atoms: _191  and  _193
REMARK   88  A    between atoms: _193  and  _194
REMARK   89  A    between atoms: _196  and  _198
REMARK   90  A    between atoms: _198  and  _199
REMARK   91  A    between atoms: _198  and  _201
REMARK   92  A    between atoms: _201  and  _202
REMARK   93  A    between atoms: _205  and  _207
REMARK   94  A    between atoms: _207  and  _208
REMARK   95  A    between atoms: _210  and  _212
REMARK   96  A    between atoms: _212  and  _213
REMARK   97  A    between atoms: _212  and  _215
REMARK   98  A    between atoms: _215  and  _216
REMARK   99  A    between atoms: _216  and  _217
REMARK  100  A    between atoms: _219  and  _221
REMARK  101  A    between atoms: _221  and  _222
REMARK  102  A    between atoms: _221  and  _224
REMARK  103  A    between atoms: _224  and  _225
REMARK  104  A    between atoms: _228  and  _230
REMARK  105  A    between atoms: _230  and  _231
REMARK  106  A    between atoms: _230  and  _233
REMARK  107  A    between atoms: _233  and  _234
REMARK  108  A    between atoms: _237  and  _239
REMARK  109  A    between atoms: _239  and  _240
REMARK  110  A    between atoms: _239  and  _242
REMARK  111  A    between atoms: _242  and  _243
REMARK  112  A    between atoms: _246  and  _248
REMARK  113  A    between atoms: _248  and  _249
REMARK  114  A    between atoms: _248  and  _251
REMARK  115  A    between atoms: _251  and  _252
REMARK  116  A    between atoms: _257  and  _259
REMARK  117  A    between atoms: _259  and  _260
REMARK  118  A    between atoms: _259  and  _262
REMARK  119  A    between atoms: _262  and  _263
REMARK  120  A    between atoms: _268  and  _270
REMARK  121  A    between atoms: _270  and  _271
REMARK  122  A    between atoms: _270  and  _273
REMARK  123  A    between atoms: _273  and  _274
REMARK  124  A    between atoms: _277  and  _279
REMARK  125  A    between atoms: _279  and  _280
REMARK  126  A    between atoms: _282  and  _284
REMARK  127  A    between atoms: _284  and  _285
REMARK  128  A    between atoms: _284  and  _287
REMARK  129  A    between atoms: _287  and  _288
REMARK  130  A    between atoms: _291  and  _293
REMARK  131  A    between atoms: _293  and  _294
REMARK  132  A    between atoms: _293  and  _296
REMARK  133  A    between atoms: _296  and  _297
REMARK  134  A    between atoms: _300  and  _302
REMARK  135  A    between atoms: _302  and  _303
REMARK  136  A    between atoms: _306  and  _308
REMARK  137  A    between atoms: _308  and  _309
REMARK  138  A    between atoms: _308  and  _311
REMARK  139  A    between atoms: _311  and  _312
REMARK  140  A    between atoms: _312  and  _313
REMARK  141  A    between atoms: _313  and  _314
REMARK  142  A    between atoms: _314  and  _315
REMARK  143  A    between atoms: _319  and  _321
REMARK  144  A    between atoms: _321  and  _322
REMARK  145  A    between atoms: _321  and  _324
REMARK  146  A    between atoms: _324  and  _325
REMARK  147  A    between atoms: _327  and  _329
REMARK  148  A    between atoms: _329  and  _330
REMARK  149  A    between atoms: _332  and  _334
REMARK  150  A    between atoms: _334  and  _335
REMARK  151  A    between atoms: _334  and  _337
REMARK  152  A    between atoms: _337  and  _338
REMARK  153  A    between atoms: _341  and  _343
REMARK  154  A    between atoms: _343  and  _344
REMARK  155  A    between atoms: _343  and  _346
REMARK  156  A    between atoms: _346  and  _347
REMARK  157  A    between atoms: _350  and  _352
REMARK  158  A    between atoms: _352  and  _353
REMARK  159  A    between atoms: _355  and  _357
REMARK  160  A    between atoms: _357  and  _358
REMARK  161  A    between atoms: _357  and  _360
REMARK  162  A    between atoms: _360  and  _361
REMARK  163  A    between atoms: _367  and  _369
REMARK  164  A    between atoms: _369  and  _370
REMARK  165  A    between atoms: _372  and  _374
REMARK  166  A    between atoms: _374  and  _375
REMARK  167  A    between atoms: _374  and  _377
REMARK  168  A    between atoms: _380  and  _382
REMARK  169  A    between atoms: _382  and  _383
REMARK  170  A    between atoms: _385  and  _387
REMARK  171  A    between atoms: _387  and  _388
REMARK  172  A    between atoms: _387  and  _390
REMARK  173  A    between atoms: _390  and  _391
REMARK  174  A    between atoms: _397  and  _399
REMARK  175  A    between atoms: _399  and  _400
REMARK  176  A    between atoms: _399  and  _402
REMARK  177  A    between atoms: _402  and  _403
REMARK  178  A    between atoms: _408  and  _409
REMARK  179  A    between atoms: _411  and  _413
REMARK  180  A    between atoms: _413  and  _414
REMARK  181  A    between atoms: _413  and  _416
REMARK  182  A    between atoms: _416  and  _417
REMARK  183  A    between atoms: _419  and  _421
REMARK  184  A    between atoms: _421  and  _422
REMARK  185  A    between atoms: _425  and  _427
REMARK  186  A    between atoms: _427  and  _428
REMARK  187  A    between atoms: _427  and  _430
REMARK  188  A    between atoms: _433  and  _435
REMARK  189  A    between atoms: _435  and  _436
REMARK  190  A    between atoms: _435  and  _438
REMARK  191  A    between atoms: _438  and  _439
REMARK  192  A    between atoms: _442  and  _444
REMARK  193  A    between atoms: _444  and  _445
REMARK  194  A    between atoms: _444  and  _447
REMARK  195  A    between atoms: _447  and  _448
REMARK  196  A    between atoms: _451  and  _453
REMARK  197  A    between atoms: _453  and  _454
REMARK  198  A    between atoms: _453  and  _456
REMARK  199  A    between atoms: _456  and  _457
REMARK  200  A    between atoms: _457  and  _458
REMARK  201  A    between atoms: _458  and  _459
REMARK  202  A    between atoms: _459  and  _460
REMARK  203  A    between atoms: _464  and  _466
REMARK  204  A    between atoms: _466  and  _467
REMARK  205  A    between atoms: _466  and  _469
REMARK  206  A    between atoms: _469  and  _470
REMARK  207  A    between atoms: _475  and  _477
REMARK  208  A    between atoms: _477  and  _478
REMARK  209  A    between atoms: _480  and  _482
REMARK  210  A    between atoms: _482  and  _483
REMARK  211  A    between atoms: _482  and  _485
REMARK  212  A    between atoms: _485  and  _486
REMARK  213  A    between atoms: _489  and  _491
REMARK  214  A    between atoms: _491  and  _492
REMARK  215  A    between atoms: _491  and  _494
REMARK  216  A    between atoms: _494  and  _495
REMARK  217  A    between atoms: _495  and  _496
REMARK  218  A    between atoms: _496  and  _497
REMARK  219  A    between atoms: _497  and  _498
REMARK  220  A    between atoms: _502  and  _504
REMARK  221  A    between atoms: _504  and  _505
REMARK  222  A    between atoms: _504  and  _507
REMARK  223  A    between atoms: _510  and  _512
REMARK  224  A    between atoms: _512  and  _513
REMARK  225  A    between atoms: _512  and  _515
REMARK  226  A    between atoms: _515  and  _516
REMARK  227  A    between atoms: _516  and  _517
REMARK  228  A    between atoms: _517  and  _518
REMARK  229  A    between atoms: _518  and  _519
REMARK                            x       y       z     vdW  Elec       q    Type
REMARK                         _______ _______ _______ _____ _____    ______ ____
ROOT
ATOM      1  O   HOH     1      20.270  18.290   8.649  0.00  0.00    +0.000 OA
ENDROOT
TORSDOF 0
REMARK  Name = ../refined-set-2016/2qg0/2qg0_pocket.pdb
REMARK  229 active torsions:
REMARK  status: ('A' for Active; 'I' for Inactive)
REMARK    1  A    between atoms: _1  and  _3
REMARK    2  A    between atoms: _3  and  _4
REMARK    3  A    between atoms: _3  and  _6
REMARK    4  A    between atoms: _6  and  _7
REMARK    5  A    between atoms: _10  and  _12
REMARK    6  A    between atoms: _12  and  _13
REMARK    7  A    between atoms: _12  and  _15
REMARK    8  A    between atoms: _15  and  _16
REMARK    9  A    between atoms: _19  and  _21
REMARK   10  A    between atoms: _21  and  _22
REMARK   11  A    between atoms: _21  and  _24
REMARK   12  A    between atoms: _24  and  _25
REMARK   13  A    between atoms: _25  and  _26
REMARK   14  A    between atoms: _29  and  _31
REMARK   15  A    between atoms: _31  and  _32
REMARK   16  A    between atoms: _31  and  _34
REMARK   17  A    between atoms: _34  and  _35
REMARK   18  A    between atoms: _38  and  _40
REMARK   19  A    between atoms: _40  and  _41
REMARK   20  A    between atoms: _40  and  _43
REMARK   21  A    between atoms: _43  and  _44
REMARK   22  A    between atoms: _47  and  _49
REMARK   23  A    between atoms: _49  and  _50
REMARK   24  A    between atoms: _49  and  _52
REMARK   25  A    between atoms: _52  and  _53
REMARK   26  A    between atoms: _55  and  _57
REMARK   27  A    between atoms: _57  and  _58
REMARK   28  A    between atoms: _57  and  _60
REMARK   29  A    between atoms: _60  and  _61
REMARK   30  A    between atoms: _66  and  _68
REMARK   31  A    between atoms: _68  and  _69
REMARK   32  A    between atoms: _68  and  _71
REMARK   33  A    between atoms: _71  and  _72
REMARK   34  A    between atoms: _74  and  _76
REMARK   35  A    between atoms: _76  and  _77
REMARK   36  A    between atoms: _76  and  _79
REMARK   37  A    between atoms: _79  and  _80
REMARK   38  A    between atoms: _82  and  _84
REMARK   39  A    between atoms: _84  and  _85
REMARK   40  A    between atoms: _84  and  _87
REMARK   41  A    between atoms: _87  and  _88
REMARK   42  A    between atoms: _91  and  _93
REMARK   43  A    between atoms: _93  and  _94
REMARK   44  A    between atoms: _97  and  _99
REMARK   45  A    between atoms: _99  and  _100
REMARK   46  A    between atoms: _99  and  _102
REMARK   47  A    between atoms: _102  and  _103
REMARK   48  A    between atoms: _106  and  _108
REMARK   49  A    between atoms: _108  and  _109
REMARK   50  A    between atoms: _108  and  _111
REMARK   51  A    between atoms: _111  and  _112
REMARK   52  A    between atoms: _115  and  _117
REMARK   53  A    between atoms: _117  and  _118
REMARK   54  A    between atoms: _117  and  _120
REMARK   55  A    between atoms: _120  and  _121
REMARK   56  A    between atoms: _121  and  _122
REMARK   57  A    between atoms: _122  and  _123
REMARK   58  A    between atoms: _123  and  _124
REMARK   59  A    between atoms: _128  and  _130
REMARK   60  A    between atoms: _130  and  _131
REMARK   61  A    between atoms: _130  and  _133
REMARK   62  A    between atoms: _133  and  _134
REMARK   63  A    between atoms: _137  and  _139
REMARK   64  A    between atoms: _139  and  _140
REMARK   65  A    between atoms: _139  and  _142
REMARK   66  A    between atoms: _142  and  _143
REMARK   67  A    between atoms: _143  and  _144
REMARK   68  A    between atoms: _147  and  _149
REMARK   69  A    between atoms: _149  and  _150
REMARK   70  A    between atoms: _149  and  _152
REMARK   71  A    between atoms: _152  and  _153
REMARK   72  A    between atoms: _156  and  _158
REMARK   73  A    between atoms: _158  and  _159
REMARK   74  A    between atoms: _158  and  _161
REMARK   75  A    between atoms: _161  and  _162
REMARK   76  A    between atoms: _165  and  _167
REMARK   77  A    between atoms: _167  and  _168
REMARK   78  A    between atoms: _167  and  _170
REMARK   79  A    between atoms: _173  and  _175
REMARK   80  A    between atoms: _175  and  _176
REMARK   81  A    between atoms: _175  and  _178
REMARK   82  A    between atoms: _178  and  _179
REMARK   83  A    between atoms: _182  and  _184
REMARK   84  A    between atoms: _184  and  _185
REMARK   85  A    between atoms: _184  and  _187
REMARK   86  A    between atoms: _187  and  _188
REMARK   87  A    between atoms: _191  and  _193
REMARK   88  A    between atoms: _193  and  _194
REMARK   89  A    between atoms: _196  and  _198
REMARK   90  A    between atoms: _198  and  _199
REMARK   91  A    between atoms: _198  and  _201
REMARK   92  A    between atoms: _201  and  _202
REMARK   93  A    between atoms: _205  and  _207
REMARK   94  A    between atoms: _207  and  _208
REMARK   95  A    between atoms: _210  and  _212
REMARK   96  A    between atoms: _212  and  _213
REMARK   97  A    between atoms: _212  and  _215
REMARK   98  A    between atoms: _215  and  _216
REMARK   99  A    between atoms: _216  and  _217
REMARK  100  A    between atoms: _219  and  _221
REMARK  101  A    between atoms: _221  and  _222
REMARK  102  A    between atoms: _221  and  _224
REMARK  103  A    between atoms: _224  and  _225
REMARK  104  A    between atoms: _228  and  _230
REMARK  105  A    between atoms: _230  and  _231
REMARK  106  A    between atoms: _230  and  _233
REMARK  107  A    between atoms: _233  and  _234
REMARK  108  A    between atoms: _237  and  _239
REMARK  109  A    between atoms: _239  and  _240
REMARK  110  A    between atoms: _239  and  _242
REMARK  111  A    between atoms: _242  and  _243
REMARK  112  A    between atoms: _246  and  _248
REMARK  113  A    between atoms: _248  and  _249
REMARK  114  A    between atoms: _248  and  _251
REMARK  115  A    between atoms: _251  and  _252
REMARK  116  A    between atoms: _257  and  _259
REMARK  117  A    between atoms: _259  and  _260
REMARK  118  A    between atoms: _259  and  _262
REMARK  119  A    between atoms: _262  and  _263
REMARK  120  A    between atoms: _268  and  _270
REMARK  121  A    between atoms: _270  and  _271
REMARK  122  A    between atoms: _270  and  _273
REMARK  123  A    between atoms: _273  and  _274
REMARK  124  A    between atoms: _277  and  _279
REMARK  125  A    between atoms: _279  and  _280
REMARK  126  A    between atoms: _282  and  _284
REMARK  127  A    between atoms: _284  and  _285
REMARK  128  A    between atoms: _284  and  _287
REMARK  129  A    between atoms: _287  and  _288
REMARK  130  A    between atoms: _291  and  _293
REMARK  131  A    between atoms: _293  and  _294
REMARK  132  A    between atoms: _293  and  _296
REMARK  133  A    between atoms: _296  and  _297
REMARK  134  A    between atoms: _300  and  _302
REMARK  135  A    between atoms: _302  and  _303
REMARK  136  A    between atoms: _306  and  _308
REMARK  137  A    between atoms: _308  and  _309
REMARK  138  A    between atoms: _308  and  _311
REMARK  139  A    between atoms: _311  and  _312
REMARK  140  A    between atoms: _312  and  _313
REMARK  141  A    between atoms: _313  and  _314
REMARK  142  A    between atoms: _314  and  _315
REMARK  143  A    between atoms: _319  and  _321
REMARK  144  A    between atoms: _321  and  _322
REMARK  145  A    between atoms: _321  and  _324
REMARK  146  A    between atoms: _324  and  _325
REMARK  147  A    between atoms: _327  and  _329
REMARK  148  A    between atoms: _329  and  _330
REMARK  149  A    between atoms: _332  and  _334
REMARK  150  A    between atoms: _334  and  _335
REMARK  151  A    between atoms: _334  and  _337
REMARK  152  A    between atoms: _337  and  _338
REMARK  153  A    between atoms: _341  and  _343
REMARK  154  A    between atoms: _343  and  _344
REMARK  155  A    between atoms: _343  and  _346
REMARK  156  A    between atoms: _346  and  _347
REMARK  157  A    between atoms: _350  and  _352
REMARK  158  A    between atoms: _352  and  _353
REMARK  159  A    between atoms: _355  and  _357
REMARK  160  A    between atoms: _357  and  _358
REMARK  161  A    between atoms: _357  and  _360
REMARK  162  A    between atoms: _360  and  _361
REMARK  163  A    between atoms: _367  and  _369
REMARK  164  A    between atoms: _369  and  _370
REMARK  165  A    between atoms: _372  and  _374
REMARK  166  A    between atoms: _374  and  _375
REMARK  167  A    between atoms: _374  and  _377
REMARK  168  A    between atoms: _380  and  _382
REMARK  169  A    between atoms: _382  and  _383
REMARK  170  A    between atoms: _385  and  _387
REMARK  171  A    between atoms: _387  and  _388
REMARK  172  A    between atoms: _387  and  _390
REMARK  173  A    between atoms: _390  and  _391
REMARK  174  A    between atoms: _397  and  _399
REMARK  175  A    between atoms: _399  and  _400
REMARK  176  A    between atoms: _399  and  _402
REMARK  177  A    between atoms: _402  and  _403
REMARK  178  A    between atoms: _408  and  _409
REMARK  179  A    between atoms: _411  and  _413
REMARK  180  A    between atoms: _413  and  _414
REMARK  181  A    between atoms: _413  and  _416
REMARK  182  A    between atoms: _416  and  _417
REMARK  183  A    between atoms: _419  and  _421
REMARK  184  A    between atoms: _421  and  _422
REMARK  185  A    between atoms: _425  and  _427
REMARK  186  A    between atoms: _427  and  _428
REMARK  187  A    between atoms: _427  and  _430
REMARK  188  A    between atoms: _433  and  _435
REMARK  189  A    between atoms: _435  and  _436
REMARK  190  A    between atoms: _435  and  _438
REMARK  191  A    between atoms: _438  and  _439
REMARK  192  A    between atoms: _442  and  _444
REMARK  193  A    between atoms: _444  and  _445
REMARK  194  A    between atoms: _444  and  _447
REMARK  195  A    between atoms: _447  and  _448
REMARK  196  A    between atoms: _451  and  _453
REMARK  197  A    between atoms: _453  and  _454
REMARK  198  A    between atoms: _453  and  _456
REMARK  199  A    between atoms: _456  and  _457
REMARK  200  A    between atoms: _457  and  _458
REMARK  201  A    between atoms: _458  and  _459
REMARK  202  A    between atoms: _459  and  _460
REMARK  203  A    between atoms: _464  and  _466
REMARK  204  A    between atoms: _466  and  _467
REMARK  205  A    between atoms: _466  and  _469
REMARK  206  A    between atoms: _469  and  _470
REMARK  207  A    between atoms: _475  and  _477
REMARK  208  A    between atoms: _477  and  _478
REMARK  209  A    between atoms: _480  and  _482
REMARK  210  A    between atoms: _482  and  _483
REMARK  211  A    between atoms: _482  and  _485
REMARK  212  A    between atoms: _485  and  _486
REMARK  213  A    between atoms: _489  and  _491
REMARK  214  A    between atoms: _491  and  _492
REMARK  215  A    between atoms: _491  and  _494
REMARK  216  A    between atoms: _494  and  _495
REMARK  217  A    between atoms: _495  and  _496
REMARK  218  A    between atoms: _496  and  _497
REMARK  219  A    between atoms: _497  and  _498
REMARK  220  A    between atoms: _502  and  _504
REMARK  221  A    between atoms: _504  and  _505
REMARK  222  A    between atoms: _504  and  _507
REMARK  223  A    between atoms: _510  and  _512
REMARK  224  A    between atoms: _512  and  _513
REMARK  225  A    between atoms: _512  and  _515
REMARK  226  A    between atoms: _515  and  _516
REMARK  227  A    between atoms: _516  and  _517
REMARK  228  A    between atoms: _517  and  _518
REMARK  229  A    between atoms: _518  and  _519
REMARK                            x       y       z     vdW  Elec       q    Type
REMARK                         _______ _______ _______ _____ _____    ______ ____
ROOT
ATOM      1  O   HOH     1      12.559  17.484  12.622  0.00  0.00    +0.000 OA
ENDROOT
TORSDOF 0
REMARK  Name = ../refined-set-2016/2qg0/2qg0_pocket.pdb
REMARK  229 active torsions:
REMARK  status: ('A' for Active; 'I' for Inactive)
REMARK    1  A    between atoms: _1  and  _3
REMARK    2  A    between atoms: _3  and  _4
REMARK    3  A    between atoms: _3  and  _6
REMARK    4  A    between atoms: _6  and  _7
REMARK    5  A    between atoms: _10  and  _12
REMARK    6  A    between atoms: _12  and  _13
REMARK    7  A    between atoms: _12  and  _15
REMARK    8  A    between atoms: _15  and  _16
REMARK    9  A    between atoms: _19  and  _21
REMARK   10  A    between atoms: _21  and  _22
REMARK   11  A    between atoms: _21  and  _24
REMARK   12  A    between atoms: _24  and  _25
REMARK   13  A    between atoms: _25  and  _26
REMARK   14  A    between atoms: _29  and  _31
REMARK   15  A    between atoms: _31  and  _32
REMARK   16  A    between atoms: _31  and  _34
REMARK   17  A    between atoms: _34  and  _35
REMARK   18  A    between atoms: _38  and  _40
REMARK   19  A    between atoms: _40  and  _41
REMARK   20  A    between atoms: _40  and  _43
REMARK   21  A    between atoms: _43  and  _44
REMARK   22  A    between atoms: _47  and  _49
REMARK   23  A    between atoms: _49  and  _50
REMARK   24  A    between atoms: _49  and  _52
REMARK   25  A    between atoms: _52  and  _53
REMARK   26  A    between atoms: _55  and  _57
REMARK   27  A    between atoms: _57  and  _58
REMARK   28  A    between atoms: _57  and  _60
REMARK   29  A    between atoms: _60  and  _61
REMARK   30  A    between atoms: _66  and  _68
REMARK   31  A    between atoms: _68  and  _69
REMARK   32  A    between atoms: _68  and  _71
REMARK   33  A    between atoms: _71  and  _72
REMARK   34  A    between atoms: _74  and  _76
REMARK   35  A    between atoms: _76  and  _77
REMARK   36  A    between atoms: _76  and  _79
REMARK   37  A    between atoms: _79  and  _80
REMARK   38  A    between atoms: _82  and  _84
REMARK   39  A    between atoms: _84  and  _85
REMARK   40  A    between atoms: _84  and  _87
REMARK   41  A    between atoms: _87  and  _88
REMARK   42  A    between atoms: _91  and  _93
REMARK   43  A    between atoms: _93  and  _94
REMARK   44  A    between atoms: _97  and  _99
REMARK   45  A    between atoms: _99  and  _100
REMARK   46  A    between atoms: _99  and  _102
REMARK   47  A    between atoms: _102  and  _103
REMARK   48  A    between atoms: _106  and  _108
REMARK   49  A    between atoms: _108  and  _109
REMARK   50  A    between atoms: _108  and  _111
REMARK   51  A    between atoms: _111  and  _112
REMARK   52  A    between atoms: _115  and  _117
REMARK   53  A    between atoms: _117  and  _118
REMARK   54  A    between atoms: _117  and  _120
REMARK   55  A    between atoms: _120  and  _121
REMARK   56  A    between atoms: _121  and  _122
REMARK   57  A    between atoms: _122  and  _123
REMARK   58  A    between atoms: _123  and  _124
REMARK   59  A    between atoms: _128  and  _130
REMARK   60  A    between atoms: _130  and  _131
REMARK   61  A    between atoms: _130  and  _133
REMARK   62  A    between atoms: _133  and  _134
REMARK   63  A    between atoms: _137  and  _139
REMARK   64  A    between atoms: _139  and  _140
REMARK   65  A    between atoms: _139  and  _142
REMARK   66  A    between atoms: _142  and  _143
REMARK   67  A    between atoms: _143  and  _144
REMARK   68  A    between atoms: _147  and  _149
REMARK   69  A    between atoms: _149  and  _150
REMARK   70  A    between atoms: _149  and  _152
REMARK   71  A    between atoms: _152  and  _153
REMARK   72  A    between atoms: _156  and  _158
REMARK   73  A    between atoms: _158  and  _159
REMARK   74  A    between atoms: _158  and  _161
REMARK   75  A    between atoms: _161  and  _162
REMARK   76  A    between atoms: _165  and  _167
REMARK   77  A    between atoms: _167  and  _168
REMARK   78  A    between atoms: _167  and  _170
REMARK   79  A    between atoms: _173  and  _175
REMARK   80  A    between atoms: _175  and  _176
REMARK   81  A    between atoms: _175  and  _178
REMARK   82  A    between atoms: _178  and  _179
REMARK   83  A    between atoms: _182  and  _184
REMARK   84  A    between atoms: _184  and  _185
REMARK   85  A    between atoms: _184  and  _187
REMARK   86  A    between atoms: _187  and  _188
REMARK   87  A    between atoms: _191  and  _193
REMARK   88  A    between atoms: _193  and  _194
REMARK   89  A    between atoms: _196  and  _198
REMARK   90  A    between atoms: _198  and  _199
REMARK   91  A    between atoms: _198  and  _201
REMARK   92  A    between atoms: _201  and  _202
REMARK   93  A    between atoms: _205  and  _207
REMARK   94  A    between atoms: _207  and  _208
REMARK   95  A    between atoms: _210  and  _212
REMARK   96  A    between atoms: _212  and  _213
REMARK   97  A    between atoms: _212  and  _215
REMARK   98  A    between atoms: _215  and  _216
REMARK   99  A    between atoms: _216  and  _217
REMARK  100  A    between atoms: _219  and  _221
REMARK  101  A    between atoms: _221  and  _222
REMARK  102  A    between atoms: _221  and  _224
REMARK  103  A    between atoms: _224  and  _225
REMARK  104  A    between atoms: _228  and  _230
REMARK  105  A    between atoms: _230  and  _231
REMARK  106  A    between atoms: _230  and  _233
REMARK  107  A    between atoms: _233  and  _234
REMARK  108  A    between atoms: _237  and  _239
REMARK  109  A    between atoms: _239  and  _240
REMARK  110  A    between atoms: _239  and  _242
REMARK  111  A    between atoms: _242  and  _243
REMARK  112  A    between atoms: _246  and  _248
REMARK  113  A    between atoms: _248  and  _249
REMARK  114  A    between atoms: _248  and  _251
REMARK  115  A    between atoms: _251  and  _252
REMARK  116  A    between atoms: _257  and  _259
REMARK  117  A    between atoms: _259  and  _260
REMARK  118  A    between atoms: _259  and  _262
REMARK  119  A    between atoms: _262  and  _263
REMARK  120  A    between atoms: _268  and  _270
REMARK  121  A    between atoms: _270  and  _271
REMARK  122  A    between atoms: _270  and  _273
REMARK  123  A    between atoms: _273  and  _274
REMARK  124  A    between atoms: _277  and  _279
REMARK  125  A    between atoms: _279  and  _280
REMARK  126  A    between atoms: _282  and  _284
REMARK  127  A    between atoms: _284  and  _285
REMARK  128  A    between atoms: _284  and  _287
REMARK  129  A    between atoms: _287  and  _288
REMARK  130  A    between atoms: _291  and  _293
REMARK  131  A    between atoms: _293  and  _294
REMARK  132  A    between atoms: _293  and  _296
REMARK  133  A    between atoms: _296  and  _297
REMARK  134  A    between atoms: _300  and  _302
REMARK  135  A    between atoms: _302  and  _303
REMARK  136  A    between atoms: _306  and  _308
REMARK  137  A    between atoms: _308  and  _309
REMARK  138  A    between atoms: _308  and  _311
REMARK  139  A    between atoms: _311  and  _312
REMARK  140  A    between atoms: _312  and  _313
REMARK  141  A    between atoms: _313  and  _314
REMARK  142  A    between atoms: _314  and  _315
REMARK  143  A    between atoms: _319  and  _321
REMARK  144  A    between atoms: _321  and  _322
REMARK  145  A    between atoms: _321  and  _324
REMARK  146  A    between atoms: _324  and  _325
REMARK  147  A    between atoms: _327  and  _329
REMARK  148  A    between atoms: _329  and  _330
REMARK  149  A    between atoms: _332  and  _334
REMARK  150  A    between atoms: _334  and  _335
REMARK  151  A    between atoms: _334  and  _337
REMARK  152  A    between atoms: _337  and  _338
REMARK  153  A    between atoms: _341  and  _343
REMARK  154  A    between atoms: _343  and  _344
REMARK  155  A    between atoms: _343  and  _346
REMARK  156  A    between atoms: _346  and  _347
REMARK  157  A    between atoms: _350  and  _352
REMARK  158  A    between atoms: _352  and  _353
REMARK  159  A    between atoms: _355  and  _357
REMARK  160  A    between atoms: _357  and  _358
REMARK  161  A    between atoms: _357  and  _360
REMARK  162  A    between atoms: _360  and  _361
REMARK  163  A    between atoms: _367  and  _369
REMARK  164  A    between atoms: _369  and  _370
REMARK  165  A    between atoms: _372  and  _374
REMARK  166  A    between atoms: _374  and  _375
REMARK  167  A    between atoms: _374  and  _377
REMARK  168  A    between atoms: _380  and  _382
REMARK  169  A    between atoms: _382  and  _383
REMARK  170  A    between atoms: _385  and  _387
REMARK  171  A    between atoms: _387  and  _388
REMARK  172  A    between atoms: _387  and  _390
REMARK  173  A    between atoms: _390  and  _391
REMARK  174  A    between atoms: _397  and  _399
REMARK  175  A    between atoms: _399  and  _400
REMARK  176  A    between atoms: _399  and  _402
REMARK  177  A    between atoms: _402  and  _403
REMARK  178  A    between atoms: _408  and  _409
REMARK  179  A    between atoms: _411  and  _413
REMARK  180  A    between atoms: _413  and  _414
REMARK  181  A    between atoms: _413  and  _416
REMARK  182  A    between atoms: _416  and  _417
REMARK  183  A    between atoms: _419  and  _421
REMARK  184  A    between atoms: _421  and  _422
REMARK  185  A    between atoms: _425  and  _427
REMARK  186  A    between atoms: _427  and  _428
REMARK  187  A    between atoms: _427  and  _430
REMARK  188  A    between atoms: _433  and  _435
REMARK  189  A    between atoms: _435  and  _436
REMARK  190  A    between atoms: _435  and  _438
REMARK  191  A    between atoms: _438  and  _439
REMARK  192  A    between atoms: _442  and  _444
REMARK  193  A    between atoms: _444  and  _445
REMARK  194  A    between atoms: _444  and  _447
REMARK  195  A    between atoms: _447  and  _448
REMARK  196  A    between atoms: _451  and  _453
REMARK  197  A    between atoms: _453  and  _454
REMARK  198  A    between atoms: _453  and  _456
REMARK  199  A    between atoms: _456  and  _457
REMARK  200  A    between atoms: _457  and  _458
REMARK  201  A    between atoms: _458  and  _459
REMARK  202  A    between atoms: _459  and  _460
REMARK  203  A    between atoms: _464  and  _466
REMARK  204  A    between atoms: _466  and  _467
REMARK  205  A    between atoms: _466  and  _469
REMARK  206  A    between atoms: _469  and  _470
REMARK  207  A    between atoms: _475  and  _477
REMARK  208  A    between atoms: _477  and  _478
REMARK  209  A    between atoms: _480  and  _482
REMARK  210  A    between atoms: _482  and  _483
REMARK  211  A    between atoms: _482  and  _485
REMARK  212  A    between atoms: _485  and  _486
REMARK  213  A    between atoms: _489  and  _491
REMARK  214  A    between atoms: _491  and  _492
REMARK  215  A    between atoms: _491  and  _494
REMARK  216  A    between atoms: _494  and  _495
REMARK  217  A    between atoms: _495  and  _496
REMARK  218  A    between atoms: _496  and  _497
REMARK  219  A    between atoms: _497  and  _498
REMARK  220  A    between atoms: _502  and  _504
REMARK  221  A    between atoms: _504  and  _505
REMARK  222  A    between atoms: _504  and  _507
REMARK  223  A    between atoms: _510  and  _512
REMARK  224  A    between atoms: _512  and  _513
REMARK  225  A    between atoms: _512  and  _515
REMARK  226  A    between atoms: _515  and  _516
REMARK  227  A    between atoms: _516  and  _517
REMARK  228  A    between atoms: _517  and  _518
REMARK  229  A    between atoms: _518  and  _519
REMARK                            x       y       z     vdW  Elec       q    Type
REMARK                         _______ _______ _______ _____ _____    ______ ____
ROOT
ATOM      1  O   HOH     1      24.198  15.181  17.193  0.00  0.00    +0.000 OA
ENDROOT
TORSDOF 0
REMARK  Name = ../refined-set-2016/2qg0/2qg0_pocket.pdb
REMARK  229 active torsions:
REMARK  status: ('A' for Active; 'I' for Inactive)
REMARK    1  A    between atoms: _1  and  _3
REMARK    2  A    between atoms: _3  and  _4
REMARK    3  A    between atoms: _3  and  _6
REMARK    4  A    between atoms: _6  and  _7
REMARK    5  A    between atoms: _10  and  _12
REMARK    6  A    between atoms: _12  and  _13
REMARK    7  A    between atoms: _12  and  _15
REMARK    8  A    between atoms: _15  and  _16
REMARK    9  A    between atoms: _19  and  _21
REMARK   10  A    between atoms: _21  and  _22
REMARK   11  A    between atoms: _21  and  _24
REMARK   12  A    between atoms: _24  and  _25
REMARK   13  A    between atoms: _25  and  _26
REMARK   14  A    between atoms: _29  and  _31
REMARK   15  A    between atoms: _31  and  _32
REMARK   16  A    between atoms: _31  and  _34
REMARK   17  A    between atoms: _34  and  _35
REMARK   18  A    between atoms: _38  and  _40
REMARK   19  A    between atoms: _40  and  _41
REMARK   20  A    between atoms: _40  and  _43
REMARK   21  A    between atoms: _43  and  _44
REMARK   22  A    between atoms: _47  and  _49
REMARK   23  A    between atoms: _49  and  _50
REMARK   24  A    between atoms: _49  and  _52
REMARK   25  A    between atoms: _52  and  _53
REMARK   26  A    between atoms: _55  and  _57
REMARK   27  A    between atoms: _57  and  _58
REMARK   28  A    between atoms: _57  and  _60
REMARK   29  A    between atoms: _60  and  _61
REMARK   30  A    between atoms: _66  and  _68
REMARK   31  A    between atoms: _68  and  _69
REMARK   32  A    between atoms: _68  and  _71
REMARK   33  A    between atoms: _71  and  _72
REMARK   34  A    between atoms: _74  and  _76
REMARK   35  A    between atoms: _76  and  _77
REMARK   36  A    between atoms: _76  and  _79
REMARK   37  A    between atoms: _79  and  _80
REMARK   38  A    between atoms: _82  and  _84
REMARK   39  A    between atoms: _84  and  _85
REMARK   40  A    between atoms: _84  and  _87
REMARK   41  A    between atoms: _87  and  _88
REMARK   42  A    between atoms: _91  and  _93
REMARK   43  A    between atoms: _93  and  _94
REMARK   44  A    between atoms: _97  and  _99
REMARK   45  A    between atoms: _99  and  _100
REMARK   46  A    between atoms: _99  and  _102
REMARK   47  A    between atoms: _102  and  _103
REMARK   48  A    between atoms: _106  and  _108
REMARK   49  A    between atoms: _108  and  _109
REMARK   50  A    between atoms: _108  and  _111
REMARK   51  A    between atoms: _111  and  _112
REMARK   52  A    between atoms: _115  and  _117
REMARK   53  A    between atoms: _117  and  _118
REMARK   54  A    between atoms: _117  and  _120
REMARK   55  A    between atoms: _120  and  _121
REMARK   56  A    between atoms: _121  and  _122
REMARK   57  A    between atoms: _122  and  _123
REMARK   58  A    between atoms: _123  and  _124
REMARK   59  A    between atoms: _128  and  _130
REMARK   60  A    between atoms: _130  and  _131
REMARK   61  A    between atoms: _130  and  _133
REMARK   62  A    between atoms: _133  and  _134
REMARK   63  A    between atoms: _137  and  _139
REMARK   64  A    between atoms: _139  and  _140
REMARK   65  A    between atoms: _139  and  _142
REMARK   66  A    between atoms: _142  and  _143
REMARK   67  A    between atoms: _143  and  _144
REMARK   68  A    between atoms: _147  and  _149
REMARK   69  A    between atoms: _149  and  _150
REMARK   70  A    between atoms: _149  and  _152
REMARK   71  A    between atoms: _152  and  _153
REMARK   72  A    between atoms: _156  and  _158
REMARK   73  A    between atoms: _158  and  _159
REMARK   74  A    between atoms: _158  and  _161
REMARK   75  A    between atoms: _161  and  _162
REMARK   76  A    between atoms: _165  and  _167
REMARK   77  A    between atoms: _167  and  _168
REMARK   78  A    between atoms: _167  and  _170
REMARK   79  A    between atoms: _173  and  _175
REMARK   80  A    between atoms: _175  and  _176
REMARK   81  A    between atoms: _175  and  _178
REMARK   82  A    between atoms: _178  and  _179
REMARK   83  A    between atoms: _182  and  _184
REMARK   84  A    between atoms: _184  and  _185
REMARK   85  A    between atoms: _184  and  _187
REMARK   86  A    between atoms: _187  and  _188
REMARK   87  A    between atoms: _191  and  _193
REMARK   88  A    between atoms: _193  and  _194
REMARK   89  A    between atoms: _196  and  _198
REMARK   90  A    between atoms: _198  and  _199
REMARK   91  A    between atoms: _198  and  _201
REMARK   92  A    between atoms: _201  and  _202
REMARK   93  A    between atoms: _205  and  _207
REMARK   94  A    between atoms: _207  and  _208
REMARK   95  A    between atoms: _210  and  _212
REMARK   96  A    between atoms: _212  and  _213
REMARK   97  A    between atoms: _212  and  _215
REMARK   98  A    between atoms: _215  and  _216
REMARK   99  A    between atoms: _216  and  _217
REMARK  100  A    between atoms: _219  and  _221
REMARK  101  A    between atoms: _221  and  _222
REMARK  102  A    between atoms: _221  and  _224
REMARK  103  A    between atoms: _224  and  _225
REMARK  104  A    between atoms: _228  and  _230
REMARK  105  A    between atoms: _230  and  _231
REMARK  106  A    between atoms: _230  and  _233
REMARK  107  A    between atoms: _233  and  _234
REMARK  108  A    between atoms: _237  and  _239
REMARK  109  A    between atoms: _239  and  _240
REMARK  110  A    between atoms: _239  and  _242
REMARK  111  A    between atoms: _242  and  _243
REMARK  112  A    between atoms: _246  and  _248
REMARK  113  A    between atoms: _248  and  _249
REMARK  114  A    between atoms: _248  and  _251
REMARK  115  A    between atoms: _251  and  _252
REMARK  116  A    between atoms: _257  and  _259
REMARK  117  A    between atoms: _259  and  _260
REMARK  118  A    between atoms: _259  and  _262
REMARK  119  A    between atoms: _262  and  _263
REMARK  120  A    between atoms: _268  and  _270
REMARK  121  A    between atoms: _270  and  _271
REMARK  122  A    between atoms: _270  and  _273
REMARK  123  A    between atoms: _273  and  _274
REMARK  124  A    between atoms: _277  and  _279
REMARK  125  A    between atoms: _279  and  _280
REMARK  126  A    between atoms: _282  and  _284
REMARK  127  A    between atoms: _284  and  _285
REMARK  128  A    between atoms: _284  and  _287
REMARK  129  A    between atoms: _287  and  _288
REMARK  130  A    between atoms: _291  and  _293
REMARK  131  A    between atoms: _293  and  _294
REMARK  132  A    between atoms: _293  and  _296
REMARK  133  A    between atoms: _296  and  _297
REMARK  134  A    between atoms: _300  and  _302
REMARK  135  A    between atoms: _302  and  _303
REMARK  136  A    between atoms: _306  and  _308
REMARK  137  A    between atoms: _308  and  _309
REMARK  138  A    between atoms: _308  and  _311
REMARK  139  A    between atoms: _311  and  _312
REMARK  140  A    between atoms: _312  and  _313
REMARK  141  A    between atoms: _313  and  _314
REMARK  142  A    between atoms: _314  and  _315
REMARK  143  A    between atoms: _319  and  _321
REMARK  144  A    between atoms: _321  and  _322
REMARK  145  A    between atoms: _321  and  _324
REMARK  146  A    between atoms: _324  and  _325
REMARK  147  A    between atoms: _327  and  _329
REMARK  148  A    between atoms: _329  and  _330
REMARK  149  A    between atoms: _332  and  _334
REMARK  150  A    between atoms: _334  and  _335
REMARK  151  A    between atoms: _334  and  _337
REMARK  152  A    between atoms: _337  and  _338
REMARK  153  A    between atoms: _341  and  _343
REMARK  154  A    between atoms: _343  and  _344
REMARK  155  A    between atoms: _343  and  _346
REMARK  156  A    between atoms: _346  and  _347
REMARK  157  A    between atoms: _350  and  _352
REMARK  158  A    between atoms: _352  and  _353
REMARK  159  A    between atoms: _355  and  _357
REMARK  160  A    between atoms: _357  and  _358
REMARK  161  A    between atoms: _357  and  _360
REMARK  162  A    between atoms: _360  and  _361
REMARK  163  A    between atoms: _367  and  _369
REMARK  164  A    between atoms: _369  and  _370
REMARK  165  A    between atoms: _372  and  _374
REMARK  166  A    between atoms: _374  and  _375
REMARK  167  A    between atoms: _374  and  _377
REMARK  168  A    between atoms: _380  and  _382
REMARK  169  A    between atoms: _382  and  _383
REMARK  170  A    between atoms: _385  and  _387
REMARK  171  A    between atoms: _387  and  _388
REMARK  172  A    between atoms: _387  and  _390
REMARK  173  A    between atoms: _390  and  _391
REMARK  174  A    between atoms: _397  and  _399
REMARK  175  A    between atoms: _399  and  _400
REMARK  176  A    between atoms: _399  and  _402
REMARK  177  A    between atoms: _402  and  _403
REMARK  178  A    between atoms: _408  and  _409
REMARK  179  A    between atoms: _411  and  _413
REMARK  180  A    between atoms: _413  and  _414
REMARK  181  A    between atoms: _413  and  _416
REMARK  182  A    between atoms: _416  and  _417
REMARK  183  A    between atoms: _419  and  _421
REMARK  184  A    between atoms: _421  and  _422
REMARK  185  A    between atoms: _425  and  _427
REMARK  186  A    between atoms: _427  and  _428
REMARK  187  A    between atoms: _427  and  _430
REMARK  188  A    between atoms: _433  and  _435
REMARK  189  A    between atoms: _435  and  _436
REMARK  190  A    between atoms: _435  and  _438
REMARK  191  A    between atoms: _438  and  _439
REMARK  192  A    between atoms: _442  and  _444
REMARK  193  A    between atoms: _444  and  _445
REMARK  194  A    between atoms: _444  and  _447
REMARK  195  A    between atoms: _447  and  _448
REMARK  196  A    between atoms: _451  and  _453
REMARK  197  A    between atoms: _453  and  _454
REMARK  198  A    between atoms: _453  and  _456
REMARK  199  A    between atoms: _456  and  _457
REMARK  200  A    between atoms: _457  and  _458
REMARK  201  A    between atoms: _458  and  _459
REMARK  202  A    between atoms: _459  and  _460
REMARK  203  A    between atoms: _464  and  _466
REMARK  204  A    between atoms: _466  and  _467
REMARK  205  A    between atoms: _466  and  _469
REMARK  206  A    between atoms: _469  and  _470
REMARK  207  A    between atoms: _475  and  _477
REMARK  208  A    between atoms: _477  and  _478
REMARK  209  A    between atoms: _480  and  _482
REMARK  210  A    between atoms: _482  and  _483
REMARK  211  A    between atoms: _482  and  _485
REMARK  212  A    between atoms: _485  and  _486
REMARK  213  A    between atoms: _489  and  _491
REMARK  214  A    between atoms: _491  and  _492
REMARK  215  A    between atoms: _491  and  _494
REMARK  216  A    between atoms: _494  and  _495
REMARK  217  A    between atoms: _495  and  _496
REMARK  218  A    between atoms: _496  and  _497
REMARK  219  A    between atoms: _497  and  _498
REMARK  220  A    between atoms: _502  and  _504
REMARK  221  A    between atoms: _504  and  _505
REMARK  222  A    between atoms: _504  and  _507
REMARK  223  A    between atoms: _510  and  _512
REMARK  224  A    between atoms: _512  and  _513
REMARK  225  A    between atoms: _512  and  _515
REMARK  226  A    between atoms: _515  and  _516
REMARK  227  A    between atoms: _516  and  _517
REMARK  228  A    between atoms: _517  and  _518
REMARK  229  A    between atoms: _518  and  _519
REMARK                            x       y       z     vdW  Elec       q    Type
REMARK                         _______ _______ _______ _____ _____    ______ ____
ROOT
ATOM      1  O   HOH     1      21.751  15.623  12.507  0.00  0.00    +0.000 OA
ENDROOT
TORSDOF 0
