REMARK  Name = ../refined-set-2016/2qg2/2qg2_pocket.pdb
REMARK  245 active torsions:
REMARK  status: ('A' for Active; 'I' for Inactive)
REMARK    1  A    between atoms: _1  and  _3
REMARK    2  A    between atoms: _3  and  _4
REMARK    3  A    between atoms: _3  and  _6
REMARK    4  A    between atoms: _6  and  _7
REMARK    5  A    between atoms: _13  and  _15
REMARK    6  A    between atoms: _15  and  _16
REMARK    7  A    between atoms: _15  and  _18
REMARK    8  A    between atoms: _18  and  _19
REMARK    9  A    between atoms: _22  and  _24
REMARK   10  A    between atoms: _24  and  _25
REMARK   11  A    between atoms: _24  and  _27
REMARK   12  A    between atoms: _27  and  _28
REMARK   13  A    between atoms: _31  and  _33
REMARK   14  A    between atoms: _33  and  _34
REMARK   15  A    between atoms: _33  and  _36
REMARK   16  A    between atoms: _36  and  _37
REMARK   17  A    between atoms: _37  and  _38
REMARK   18  A    between atoms: _41  and  _43
REMARK   19  A    between atoms: _43  and  _44
REMARK   20  A    between atoms: _43  and  _46
REMARK   21  A    between atoms: _46  and  _47
REMARK   22  A    between atoms: _50  and  _52
REMARK   23  A    between atoms: _52  and  _53
REMARK   24  A    between atoms: _52  and  _55
REMARK   25  A    between atoms: _55  and  _56
REMARK   26  A    between atoms: _59  and  _61
REMARK   27  A    between atoms: _61  and  _62
REMARK   28  A    between atoms: _61  and  _64
REMARK   29  A    between atoms: _64  and  _65
REMARK   30  A    between atoms: _67  and  _69
REMARK   31  A    between atoms: _69  and  _70
REMARK   32  A    between atoms: _69  and  _72
REMARK   33  A    between atoms: _72  and  _73
REMARK   34  A    between atoms: _78  and  _80
REMARK   35  A    between atoms: _80  and  _81
REMARK   36  A    between atoms: _80  and  _83
REMARK   37  A    between atoms: _83  and  _84
REMARK   38  A    between atoms: _86  and  _88
REMARK   39  A    between atoms: _88  and  _89
REMARK   40  A    between atoms: _88  and  _91
REMARK   41  A    between atoms: _91  and  _92
REMARK   42  A    between atoms: _94  and  _96
REMARK   43  A    between atoms: _96  and  _97
REMARK   44  A    between atoms: _96  and  _99
REMARK   45  A    between atoms: _99  and  _100
REMARK   46  A    between atoms: _103  and  _105
REMARK   47  A    between atoms: _105  and  _106
REMARK   48  A    between atoms: _109  and  _111
REMARK   49  A    between atoms: _111  and  _112
REMARK   50  A    between atoms: _111  and  _114
REMARK   51  A    between atoms: _114  and  _115
REMARK   52  A    between atoms: _118  and  _120
REMARK   53  A    between atoms: _120  and  _121
REMARK   54  A    between atoms: _120  and  _123
REMARK   55  A    between atoms: _123  and  _124
REMARK   56  A    between atoms: _124  and  _125
REMARK   57  A    between atoms: _125  and  _126
REMARK   58  A    between atoms: _126  and  _127
REMARK   59  A    between atoms: _131  and  _133
REMARK   60  A    between atoms: _133  and  _134
REMARK   61  A    between atoms: _133  and  _136
REMARK   62  A    between atoms: _136  and  _137
REMARK   63  A    between atoms: _140  and  _142
REMARK   64  A    between atoms: _142  and  _143
REMARK   65  A    between atoms: _142  and  _145
REMARK   66  A    between atoms: _145  and  _146
REMARK   67  A    between atoms: _149  and  _151
REMARK   68  A    between atoms: _151  and  _152
REMARK   69  A    between atoms: _151  and  _154
REMARK   70  A    between atoms: _157  and  _159
REMARK   71  A    between atoms: _159  and  _160
REMARK   72  A    between atoms: _159  and  _162
REMARK   73  A    between atoms: _162  and  _163
REMARK   74  A    between atoms: _166  and  _168
REMARK   75  A    between atoms: _168  and  _169
REMARK   76  A    between atoms: _168  and  _171
REMARK   77  A    between atoms: _171  and  _172
REMARK   78  A    between atoms: _175  and  _177
REMARK   79  A    between atoms: _177  and  _178
REMARK   80  A    between atoms: _180  and  _182
REMARK   81  A    between atoms: _182  and  _183
REMARK   82  A    between atoms: _182  and  _185
REMARK   83  A    between atoms: _185  and  _186
REMARK   84  A    between atoms: _189  and  _191
REMARK   85  A    between atoms: _191  and  _192
REMARK   86  A    between atoms: _194  and  _196
REMARK   87  A    between atoms: _196  and  _197
REMARK   88  A    between atoms: _196  and  _199
REMARK   89  A    between atoms: _199  and  _200
REMARK   90  A    between atoms: _200  and  _201
REMARK   91  A    between atoms: _203  and  _205
REMARK   92  A    between atoms: _205  and  _206
REMARK   93  A    between atoms: _205  and  _208
REMARK   94  A    between atoms: _208  and  _209
REMARK   95  A    between atoms: _212  and  _214
REMARK   96  A    between atoms: _214  and  _215
REMARK   97  A    between atoms: _218  and  _220
REMARK   98  A    between atoms: _220  and  _221
REMARK   99  A    between atoms: _220  and  _223
REMARK  100  A    between atoms: _223  and  _224
REMARK  101  A    between atoms: _227  and  _229
REMARK  102  A    between atoms: _229  and  _230
REMARK  103  A    between atoms: _229  and  _232
REMARK  104  A    between atoms: _232  and  _233
REMARK  105  A    between atoms: _236  and  _238
REMARK  106  A    between atoms: _238  and  _239
REMARK  107  A    between atoms: _238  and  _241
REMARK  108  A    between atoms: _241  and  _242
REMARK  109  A    between atoms: _245  and  _247
REMARK  110  A    between atoms: _247  and  _248
REMARK  111  A    between atoms: _247  and  _250
REMARK  112  A    between atoms: _250  and  _251
REMARK  113  A    between atoms: _256  and  _258
REMARK  114  A    between atoms: _258  and  _259
REMARK  115  A    between atoms: _258  and  _261
REMARK  116  A    between atoms: _261  and  _262
REMARK  117  A    between atoms: _267  and  _269
REMARK  118  A    between atoms: _269  and  _270
REMARK  119  A    between atoms: _269  and  _272
REMARK  120  A    between atoms: _272  and  _273
REMARK  121  A    between atoms: _276  and  _278
REMARK  122  A    between atoms: _278  and  _279
REMARK  123  A    between atoms: _281  and  _283
REMARK  124  A    between atoms: _283  and  _284
REMARK  125  A    between atoms: _283  and  _286
REMARK  126  A    between atoms: _286  and  _287
REMARK  127  A    between atoms: _290  and  _292
REMARK  128  A    between atoms: _292  and  _293
REMARK  129  A    between atoms: _292  and  _295
REMARK  130  A    between atoms: _295  and  _296
REMARK  131  A    between atoms: _299  and  _301
REMARK  132  A    between atoms: _301  and  _302
REMARK  133  A    between atoms: _305  and  _307
REMARK  134  A    between atoms: _307  and  _308
REMARK  135  A    between atoms: _307  and  _310
REMARK  136  A    between atoms: _310  and  _311
REMARK  137  A    between atoms: _311  and  _312
REMARK  138  A    between atoms: _312  and  _313
REMARK  139  A    between atoms: _313  and  _314
REMARK  140  A    between atoms: _318  and  _320
REMARK  141  A    between atoms: _320  and  _321
REMARK  142  A    between atoms: _323  and  _325
REMARK  143  A    between atoms: _325  and  _326
REMARK  144  A    between atoms: _325  and  _328
REMARK  145  A    between atoms: _328  and  _329
REMARK  146  A    between atoms: _332  and  _334
REMARK  147  A    between atoms: _334  and  _335
REMARK  148  A    between atoms: _334  and  _337
REMARK  149  A    between atoms: _337  and  _338
REMARK  150  A    between atoms: _344  and  _346
REMARK  151  A    between atoms: _346  and  _347
REMARK  152  A    between atoms: _349  and  _351
REMARK  153  A    between atoms: _351  and  _352
REMARK  154  A    between atoms: _351  and  _354
REMARK  155  A    between atoms: _357  and  _359
REMARK  156  A    between atoms: _359  and  _360
REMARK  157  A    between atoms: _362  and  _364
REMARK  158  A    between atoms: _364  and  _365
REMARK  159  A    between atoms: _364  and  _367
REMARK  160  A    between atoms: _367  and  _368
REMARK  161  A    between atoms: _374  and  _376
REMARK  162  A    between atoms: _376  and  _377
REMARK  163  A    between atoms: _376  and  _379
REMARK  164  A    between atoms: _379  and  _380
REMARK  165  A    between atoms: _385  and  _386
REMARK  166  A    between atoms: _388  and  _390
REMARK  167  A    between atoms: _390  and  _391
REMARK  168  A    between atoms: _390  and  _393
REMARK  169  A    between atoms: _393  and  _394
REMARK  170  A    between atoms: _396  and  _398
REMARK  171  A    between atoms: _398  and  _399
REMARK  172  A    between atoms: _398  and  _401
REMARK  173  A    between atoms: _401  and  _402
REMARK  174  A    between atoms: _407  and  _408
REMARK  175  A    between atoms: _410  and  _412
REMARK  176  A    between atoms: _412  and  _413
REMARK  177  A    between atoms: _412  and  _415
REMARK  178  A    between atoms: _418  and  _420
REMARK  179  A    between atoms: _420  and  _421
REMARK  180  A    between atoms: _420  and  _423
REMARK  181  A    between atoms: _423  and  _424
REMARK  182  A    between atoms: _427  and  _429
REMARK  183  A    between atoms: _429  and  _430
REMARK  184  A    between atoms: _429  and  _432
REMARK  185  A    between atoms: _435  and  _437
REMARK  186  A    between atoms: _437  and  _438
REMARK  187  A    between atoms: _437  and  _440
REMARK  188  A    between atoms: _440  and  _441
REMARK  189  A    between atoms: _444  and  _446
REMARK  190  A    between atoms: _446  and  _447
REMARK  191  A    between atoms: _446  and  _449
REMARK  192  A    between atoms: _449  and  _450
REMARK  193  A    between atoms: _453  and  _455
REMARK  194  A    between atoms: _455  and  _456
REMARK  195  A    between atoms: _455  and  _458
REMARK  196  A    between atoms: _458  and  _459
REMARK  197  A    between atoms: _459  and  _460
REMARK  198  A    between atoms: _460  and  _461
REMARK  199  A    between atoms: _461  and  _462
REMARK  200  A    between atoms: _466  and  _468
REMARK  201  A    between atoms: _468  and  _469
REMARK  202  A    between atoms: _468  and  _471
REMARK  203  A    between atoms: _471  and  _472
REMARK  204  A    between atoms: _477  and  _479
REMARK  205  A    between atoms: _479  and  _480
REMARK  206  A    between atoms: _483  and  _485
REMARK  207  A    between atoms: _485  and  _486
REMARK  208  A    between atoms: _485  and  _488
REMARK  209  A    between atoms: _488  and  _489
REMARK  210  A    between atoms: _499  and  _501
REMARK  211  A    between atoms: _501  and  _502
REMARK  212  A    between atoms: _501  and  _504
REMARK  213  A    between atoms: _504  and  _505
REMARK  214  A    between atoms: _505  and  _506
REMARK  215  A    between atoms: _509  and  _511
REMARK  216  A    between atoms: _511  and  _512
REMARK  217  A    between atoms: _511  and  _514
REMARK  218  A    between atoms: _514  and  _515
REMARK  219  A    between atoms: _517  and  _519
REMARK  220  A    between atoms: _519  and  _520
REMARK  221  A    between atoms: _519  and  _522
REMARK  222  A    between atoms: _522  and  _523
REMARK  223  A    between atoms: _529  and  _531
REMARK  224  A    between atoms: _531  and  _532
REMARK  225  A    between atoms: _531  and  _534
REMARK  226  A    between atoms: _534  and  _535
REMARK  227  A    between atoms: _538  and  _540
REMARK  228  A    between atoms: _540  and  _541
REMARK  229  A    between atoms: _540  and  _543
REMARK  230  A    between atoms: _546  and  _548
REMARK  231  A    between atoms: _548  and  _549
REMARK  232  A    between atoms: _551  and  _553
REMARK  233  A    between atoms: _553  and  _554
REMARK  234  A    between atoms: _553  and  _556
REMARK  235  A    between atoms: _556  and  _557
REMARK  236  A    between atoms: _560  and  _562
REMARK  237  A    between atoms: _562  and  _563
REMARK  238  A    between atoms: _562  and  _565
REMARK  239  A    between atoms: _565  and  _566
REMARK  240  A    between atoms: _566  and  _567
REMARK  241  A    between atoms: _567  and  _568
REMARK  242  A    between atoms: _568  and  _569
REMARK  243  A    between atoms: _573  and  _575
REMARK  244  A    between atoms: _575  and  _576
REMARK  245  A    between atoms: _575  and  _578
REMARK                            x       y       z     vdW  Elec       q    Type
REMARK                         _______ _______ _______ _____ _____    ______ ____
ROOT
ATOM      1  CB  PHE A   1      15.527  27.871  25.134  0.00  0.00    +0.051 C 
ENDROOT
BRANCH   1   2
ATOM      2  CG  PHE A   1      14.106  27.440  25.275  0.00  0.00    -0.020 A 
ATOM      3  CD2 PHE A   1      13.801  26.217  25.846  0.00  0.00    -0.004 A 
ATOM      4  CE2 PHE A   1      12.482  25.839  26.046  0.00  0.00    -0.000 A 
ATOM      5  CZ  PHE A   1      11.461  26.685  25.671  0.00  0.00    -0.000 A 
ATOM      6  CE1 PHE A   1      11.756  27.911  25.092  0.00  0.00    -0.000 A 
ATOM      7  CD1 PHE A   1      13.069  28.280  24.898  0.00  0.00    -0.004 A 
ENDBRANCH   1   2
BRANCH   1   8
ATOM      8  CA  PHE A   1      16.022  27.967  23.689  0.00  0.00    +0.137 C 
BRANCH   8   9
ATOM      9  N   PHE A   1      16.360  26.650  23.159  0.00  0.00    -0.239 NA
ATOM     10  H   PHE A   1      16.367  25.824  23.791  0.00  0.00    +0.142 HD
ENDBRANCH   8   9
BRANCH   8  11
ATOM     11  C   PHE A   1      17.331  28.733  23.727  0.00  0.00    +0.224 C 
ATOM     12  O   PHE A   1      18.402  28.130  23.708  0.00  0.00    -0.287 OA
ENDBRANCH   8  11
ENDBRANCH   1   8
TORSDOF 4
REMARK  Name = ../refined-set-2016/2qg2/2qg2_pocket.pdb
REMARK  245 active torsions:
REMARK  status: ('A' for Active; 'I' for Inactive)
REMARK    1  A    between atoms: _1  and  _3
REMARK    2  A    between atoms: _3  and  _4
REMARK    3  A    between atoms: _3  and  _6
REMARK    4  A    between atoms: _6  and  _7
REMARK    5  A    between atoms: _13  and  _15
REMARK    6  A    between atoms: _15  and  _16
REMARK    7  A    between atoms: _15  and  _18
REMARK    8  A    between atoms: _18  and  _19
REMARK    9  A    between atoms: _22  and  _24
REMARK   10  A    between atoms: _24  and  _25
REMARK   11  A    between atoms: _24  and  _27
REMARK   12  A    between atoms: _27  and  _28
REMARK   13  A    between atoms: _31  and  _33
REMARK   14  A    between atoms: _33  and  _34
REMARK   15  A    between atoms: _33  and  _36
REMARK   16  A    between atoms: _36  and  _37
REMARK   17  A    between atoms: _37  and  _38
REMARK   18  A    between atoms: _41  and  _43
REMARK   19  A    between atoms: _43  and  _44
REMARK   20  A    between atoms: _43  and  _46
REMARK   21  A    between atoms: _46  and  _47
REMARK   22  A    between atoms: _50  and  _52
REMARK   23  A    between atoms: _52  and  _53
REMARK   24  A    between atoms: _52  and  _55
REMARK   25  A    between atoms: _55  and  _56
REMARK   26  A    between atoms: _59  and  _61
REMARK   27  A    between atoms: _61  and  _62
REMARK   28  A    between atoms: _61  and  _64
REMARK   29  A    between atoms: _64  and  _65
REMARK   30  A    between atoms: _67  and  _69
REMARK   31  A    between atoms: _69  and  _70
REMARK   32  A    between atoms: _69  and  _72
REMARK   33  A    between atoms: _72  and  _73
REMARK   34  A    between atoms: _78  and  _80
REMARK   35  A    between atoms: _80  and  _81
REMARK   36  A    between atoms: _80  and  _83
REMARK   37  A    between atoms: _83  and  _84
REMARK   38  A    between atoms: _86  and  _88
REMARK   39  A    between atoms: _88  and  _89
REMARK   40  A    between atoms: _88  and  _91
REMARK   41  A    between atoms: _91  and  _92
REMARK   42  A    between atoms: _94  and  _96
REMARK   43  A    between atoms: _96  and  _97
REMARK   44  A    between atoms: _96  and  _99
REMARK   45  A    between atoms: _99  and  _100
REMARK   46  A    between atoms: _103  and  _105
REMARK   47  A    between atoms: _105  and  _106
REMARK   48  A    between atoms: _109  and  _111
REMARK   49  A    between atoms: _111  and  _112
REMARK   50  A    between atoms: _111  and  _114
REMARK   51  A    between atoms: _114  and  _115
REMARK   52  A    between atoms: _118  and  _120
REMARK   53  A    between atoms: _120  and  _121
REMARK   54  A    between atoms: _120  and  _123
REMARK   55  A    between atoms: _123  and  _124
REMARK   56  A    between atoms: _124  and  _125
REMARK   57  A    between atoms: _125  and  _126
REMARK   58  A    between atoms: _126  and  _127
REMARK   59  A    between atoms: _131  and  _133
REMARK   60  A    between atoms: _133  and  _134
REMARK   61  A    between atoms: _133  and  _136
REMARK   62  A    between atoms: _136  and  _137
REMARK   63  A    between atoms: _140  and  _142
REMARK   64  A    between atoms: _142  and  _143
REMARK   65  A    between atoms: _142  and  _145
REMARK   66  A    between atoms: _145  and  _146
REMARK   67  A    between atoms: _149  and  _151
REMARK   68  A    between atoms: _151  and  _152
REMARK   69  A    between atoms: _151  and  _154
REMARK   70  A    between atoms: _157  and  _159
REMARK   71  A    between atoms: _159  and  _160
REMARK   72  A    between atoms: _159  and  _162
REMARK   73  A    between atoms: _162  and  _163
REMARK   74  A    between atoms: _166  and  _168
REMARK   75  A    between atoms: _168  and  _169
REMARK   76  A    between atoms: _168  and  _171
REMARK   77  A    between atoms: _171  and  _172
REMARK   78  A    between atoms: _175  and  _177
REMARK   79  A    between atoms: _177  and  _178
REMARK   80  A    between atoms: _180  and  _182
REMARK   81  A    between atoms: _182  and  _183
REMARK   82  A    between atoms: _182  and  _185
REMARK   83  A    between atoms: _185  and  _186
REMARK   84  A    between atoms: _189  and  _191
REMARK   85  A    between atoms: _191  and  _192
REMARK   86  A    between atoms: _194  and  _196
REMARK   87  A    between atoms: _196  and  _197
REMARK   88  A    between atoms: _196  and  _199
REMARK   89  A    between atoms: _199  and  _200
REMARK   90  A    between atoms: _200  and  _201
REMARK   91  A    between atoms: _203  and  _205
REMARK   92  A    between atoms: _205  and  _206
REMARK   93  A    between atoms: _205  and  _208
REMARK   94  A    between atoms: _208  and  _209
REMARK   95  A    between atoms: _212  and  _214
REMARK   96  A    between atoms: _214  and  _215
REMARK   97  A    between atoms: _218  and  _220
REMARK   98  A    between atoms: _220  and  _221
REMARK   99  A    between atoms: _220  and  _223
REMARK  100  A    between atoms: _223  and  _224
REMARK  101  A    between atoms: _227  and  _229
REMARK  102  A    between atoms: _229  and  _230
REMARK  103  A    between atoms: _229  and  _232
REMARK  104  A    between atoms: _232  and  _233
REMARK  105  A    between atoms: _236  and  _238
REMARK  106  A    between atoms: _238  and  _239
REMARK  107  A    between atoms: _238  and  _241
REMARK  108  A    between atoms: _241  and  _242
REMARK  109  A    between atoms: _245  and  _247
REMARK  110  A    between atoms: _247  and  _248
REMARK  111  A    between atoms: _247  and  _250
REMARK  112  A    between atoms: _250  and  _251
REMARK  113  A    between atoms: _256  and  _258
REMARK  114  A    between atoms: _258  and  _259
REMARK  115  A    between atoms: _258  and  _261
REMARK  116  A    between atoms: _261  and  _262
REMARK  117  A    between atoms: _267  and  _269
REMARK  118  A    between atoms: _269  and  _270
REMARK  119  A    between atoms: _269  and  _272
REMARK  120  A    between atoms: _272  and  _273
REMARK  121  A    between atoms: _276  and  _278
REMARK  122  A    between atoms: _278  and  _279
REMARK  123  A    between atoms: _281  and  _283
REMARK  124  A    between atoms: _283  and  _284
REMARK  125  A    between atoms: _283  and  _286
REMARK  126  A    between atoms: _286  and  _287
REMARK  127  A    between atoms: _290  and  _292
REMARK  128  A    between atoms: _292  and  _293
REMARK  129  A    between atoms: _292  and  _295
REMARK  130  A    between atoms: _295  and  _296
REMARK  131  A    between atoms: _299  and  _301
REMARK  132  A    between atoms: _301  and  _302
REMARK  133  A    between atoms: _305  and  _307
REMARK  134  A    between atoms: _307  and  _308
REMARK  135  A    between atoms: _307  and  _310
REMARK  136  A    between atoms: _310  and  _311
REMARK  137  A    between atoms: _311  and  _312
REMARK  138  A    between atoms: _312  and  _313
REMARK  139  A    between atoms: _313  and  _314
REMARK  140  A    between atoms: _318  and  _320
REMARK  141  A    between atoms: _320  and  _321
REMARK  142  A    between atoms: _323  and  _325
REMARK  143  A    between atoms: _325  and  _326
REMARK  144  A    between atoms: _325  and  _328
REMARK  145  A    between atoms: _328  and  _329
REMARK  146  A    between atoms: _332  and  _334
REMARK  147  A    between atoms: _334  and  _335
REMARK  148  A    between atoms: _334  and  _337
REMARK  149  A    between atoms: _337  and  _338
REMARK  150  A    between atoms: _344  and  _346
REMARK  151  A    between atoms: _346  and  _347
REMARK  152  A    between atoms: _349  and  _351
REMARK  153  A    between atoms: _351  and  _352
REMARK  154  A    between atoms: _351  and  _354
REMARK  155  A    between atoms: _357  and  _359
REMARK  156  A    between atoms: _359  and  _360
REMARK  157  A    between atoms: _362  and  _364
REMARK  158  A    between atoms: _364  and  _365
REMARK  159  A    between atoms: _364  and  _367
REMARK  160  A    between atoms: _367  and  _368
REMARK  161  A    between atoms: _374  and  _376
REMARK  162  A    between atoms: _376  and  _377
REMARK  163  A    between atoms: _376  and  _379
REMARK  164  A    between atoms: _379  and  _380
REMARK  165  A    between atoms: _385  and  _386
REMARK  166  A    between atoms: _388  and  _390
REMARK  167  A    between atoms: _390  and  _391
REMARK  168  A    between atoms: _390  and  _393
REMARK  169  A    between atoms: _393  and  _394
REMARK  170  A    between atoms: _396  and  _398
REMARK  171  A    between atoms: _398  and  _399
REMARK  172  A    between atoms: _398  and  _401
REMARK  173  A    between atoms: _401  and  _402
REMARK  174  A    between atoms: _407  and  _408
REMARK  175  A    between atoms: _410  and  _412
REMARK  176  A    between atoms: _412  and  _413
REMARK  177  A    between atoms: _412  and  _415
REMARK  178  A    between atoms: _418  and  _420
REMARK  179  A    between atoms: _420  and  _421
REMARK  180  A    between atoms: _420  and  _423
REMARK  181  A    between atoms: _423  and  _424
REMARK  182  A    between atoms: _427  and  _429
REMARK  183  A    between atoms: _429  and  _430
REMARK  184  A    between atoms: _429  and  _432
REMARK  185  A    between atoms: _435  and  _437
REMARK  186  A    between atoms: _437  and  _438
REMARK  187  A    between atoms: _437  and  _440
REMARK  188  A    between atoms: _440  and  _441
REMARK  189  A    between atoms: _444  and  _446
REMARK  190  A    between atoms: _446  and  _447
REMARK  191  A    between atoms: _446  and  _449
REMARK  192  A    between atoms: _449  and  _450
REMARK  193  A    between atoms: _453  and  _455
REMARK  194  A    between atoms: _455  and  _456
REMARK  195  A    between atoms: _455  and  _458
REMARK  196  A    between atoms: _458  and  _459
REMARK  197  A    between atoms: _459  and  _460
REMARK  198  A    between atoms: _460  and  _461
REMARK  199  A    between atoms: _461  and  _462
REMARK  200  A    between atoms: _466  and  _468
REMARK  201  A    between atoms: _468  and  _469
REMARK  202  A    between atoms: _468  and  _471
REMARK  203  A    between atoms: _471  and  _472
REMARK  204  A    between atoms: _477  and  _479
REMARK  205  A    between atoms: _479  and  _480
REMARK  206  A    between atoms: _483  and  _485
REMARK  207  A    between atoms: _485  and  _486
REMARK  208  A    between atoms: _485  and  _488
REMARK  209  A    between atoms: _488  and  _489
REMARK  210  A    between atoms: _499  and  _501
REMARK  211  A    between atoms: _501  and  _502
REMARK  212  A    between atoms: _501  and  _504
REMARK  213  A    between atoms: _504  and  _505
REMARK  214  A    between atoms: _505  and  _506
REMARK  215  A    between atoms: _509  and  _511
REMARK  216  A    between atoms: _511  and  _512
REMARK  217  A    between atoms: _511  and  _514
REMARK  218  A    between atoms: _514  and  _515
REMARK  219  A    between atoms: _517  and  _519
REMARK  220  A    between atoms: _519  and  _520
REMARK  221  A    between atoms: _519  and  _522
REMARK  222  A    between atoms: _522  and  _523
REMARK  223  A    between atoms: _529  and  _531
REMARK  224  A    between atoms: _531  and  _532
REMARK  225  A    between atoms: _531  and  _534
REMARK  226  A    between atoms: _534  and  _535
REMARK  227  A    between atoms: _538  and  _540
REMARK  228  A    between atoms: _540  and  _541
REMARK  229  A    between atoms: _540  and  _543
REMARK  230  A    between atoms: _546  and  _548
REMARK  231  A    between atoms: _548  and  _549
REMARK  232  A    between atoms: _551  and  _553
REMARK  233  A    between atoms: _553  and  _554
REMARK  234  A    between atoms: _553  and  _556
REMARK  235  A    between atoms: _556  and  _557
REMARK  236  A    between atoms: _560  and  _562
REMARK  237  A    between atoms: _562  and  _563
REMARK  238  A    between atoms: _562  and  _565
REMARK  239  A    between atoms: _565  and  _566
REMARK  240  A    between atoms: _566  and  _567
REMARK  241  A    between atoms: _567  and  _568
REMARK  242  A    between atoms: _568  and  _569
REMARK  243  A    between atoms: _573  and  _575
REMARK  244  A    between atoms: _575  and  _576
REMARK  245  A    between atoms: _575  and  _578
REMARK                            x       y       z     vdW  Elec       q    Type
REMARK                         _______ _______ _______ _____ _____    ______ ____
ROOT
ATOM      1  CA  ILE A   1      15.642  31.714  28.515  0.00  0.00    +0.133 C 
ENDROOT
BRANCH   1   2
ATOM      2  N   ILE A   1      16.995  32.174  28.235  0.00  0.00    -0.239 NA
ATOM      3  H   ILE A   1      17.353  32.143  27.259  0.00  0.00    +0.142 HD
ENDBRANCH   1   2
BRANCH   1   4
ATOM      4  C   ILE A   1      15.699  30.352  29.195  0.00  0.00    +0.224 C 
ATOM      5  O   ILE A   1      14.919  30.070  30.103  0.00  0.00    -0.287 OA
ENDBRANCH   1   4
BRANCH   1   6
ATOM      6  CB  ILE A   1      14.793  31.630  27.216  0.00  0.00    +0.023 C 
ATOM      7  CG2 ILE A   1      13.449  30.971  27.498  0.00  0.00    +0.002 C 
BRANCH   6   8
ATOM      8  CG1 ILE A   1      14.561  33.032  26.654  0.00  0.00    +0.002 C 
ATOM      9  CD1 ILE A   1      15.794  33.681  26.082  0.00  0.00    +0.000 C 
ENDBRANCH   6   8
ENDBRANCH   1   6
TORSDOF 4
REMARK  Name = ../refined-set-2016/2qg2/2qg2_pocket.pdb
REMARK  245 active torsions:
REMARK  status: ('A' for Active; 'I' for Inactive)
REMARK    1  A    between atoms: _1  and  _3
REMARK    2  A    between atoms: _3  and  _4
REMARK    3  A    between atoms: _3  and  _6
REMARK    4  A    between atoms: _6  and  _7
REMARK    5  A    between atoms: _13  and  _15
REMARK    6  A    between atoms: _15  and  _16
REMARK    7  A    between atoms: _15  and  _18
REMARK    8  A    between atoms: _18  and  _19
REMARK    9  A    between atoms: _22  and  _24
REMARK   10  A    between atoms: _24  and  _25
REMARK   11  A    between atoms: _24  and  _27
REMARK   12  A    between atoms: _27  and  _28
REMARK   13  A    between atoms: _31  and  _33
REMARK   14  A    between atoms: _33  and  _34
REMARK   15  A    between atoms: _33  and  _36
REMARK   16  A    between atoms: _36  and  _37
REMARK   17  A    between atoms: _37  and  _38
REMARK   18  A    between atoms: _41  and  _43
REMARK   19  A    between atoms: _43  and  _44
REMARK   20  A    between atoms: _43  and  _46
REMARK   21  A    between atoms: _46  and  _47
REMARK   22  A    between atoms: _50  and  _52
REMARK   23  A    between atoms: _52  and  _53
REMARK   24  A    between atoms: _52  and  _55
REMARK   25  A    between atoms: _55  and  _56
REMARK   26  A    between atoms: _59  and  _61
REMARK   27  A    between atoms: _61  and  _62
REMARK   28  A    between atoms: _61  and  _64
REMARK   29  A    between atoms: _64  and  _65
REMARK   30  A    between atoms: _67  and  _69
REMARK   31  A    between atoms: _69  and  _70
REMARK   32  A    between atoms: _69  and  _72
REMARK   33  A    between atoms: _72  and  _73
REMARK   34  A    between atoms: _78  and  _80
REMARK   35  A    between atoms: _80  and  _81
REMARK   36  A    between atoms: _80  and  _83
REMARK   37  A    between atoms: _83  and  _84
REMARK   38  A    between atoms: _86  and  _88
REMARK   39  A    between atoms: _88  and  _89
REMARK   40  A    between atoms: _88  and  _91
REMARK   41  A    between atoms: _91  and  _92
REMARK   42  A    between atoms: _94  and  _96
REMARK   43  A    between atoms: _96  and  _97
REMARK   44  A    between atoms: _96  and  _99
REMARK   45  A    between atoms: _99  and  _100
REMARK   46  A    between atoms: _103  and  _105
REMARK   47  A    between atoms: _105  and  _106
REMARK   48  A    between atoms: _109  and  _111
REMARK   49  A    between atoms: _111  and  _112
REMARK   50  A    between atoms: _111  and  _114
REMARK   51  A    between atoms: _114  and  _115
REMARK   52  A    between atoms: _118  and  _120
REMARK   53  A    between atoms: _120  and  _121
REMARK   54  A    between atoms: _120  and  _123
REMARK   55  A    between atoms: _123  and  _124
REMARK   56  A    between atoms: _124  and  _125
REMARK   57  A    between atoms: _125  and  _126
REMARK   58  A    between atoms: _126  and  _127
REMARK   59  A    between atoms: _131  and  _133
REMARK   60  A    between atoms: _133  and  _134
REMARK   61  A    between atoms: _133  and  _136
REMARK   62  A    between atoms: _136  and  _137
REMARK   63  A    between atoms: _140  and  _142
REMARK   64  A    between atoms: _142  and  _143
REMARK   65  A    between atoms: _142  and  _145
REMARK   66  A    between atoms: _145  and  _146
REMARK   67  A    between atoms: _149  and  _151
REMARK   68  A    between atoms: _151  and  _152
REMARK   69  A    between atoms: _151  and  _154
REMARK   70  A    between atoms: _157  and  _159
REMARK   71  A    between atoms: _159  and  _160
REMARK   72  A    between atoms: _159  and  _162
REMARK   73  A    between atoms: _162  and  _163
REMARK   74  A    between atoms: _166  and  _168
REMARK   75  A    between atoms: _168  and  _169
REMARK   76  A    between atoms: _168  and  _171
REMARK   77  A    between atoms: _171  and  _172
REMARK   78  A    between atoms: _175  and  _177
REMARK   79  A    between atoms: _177  and  _178
REMARK   80  A    between atoms: _180  and  _182
REMARK   81  A    between atoms: _182  and  _183
REMARK   82  A    between atoms: _182  and  _185
REMARK   83  A    between atoms: _185  and  _186
REMARK   84  A    between atoms: _189  and  _191
REMARK   85  A    between atoms: _191  and  _192
REMARK   86  A    between atoms: _194  and  _196
REMARK   87  A    between atoms: _196  and  _197
REMARK   88  A    between atoms: _196  and  _199
REMARK   89  A    between atoms: _199  and  _200
REMARK   90  A    between atoms: _200  and  _201
REMARK   91  A    between atoms: _203  and  _205
REMARK   92  A    between atoms: _205  and  _206
REMARK   93  A    between atoms: _205  and  _208
REMARK   94  A    between atoms: _208  and  _209
REMARK   95  A    between atoms: _212  and  _214
REMARK   96  A    between atoms: _214  and  _215
REMARK   97  A    between atoms: _218  and  _220
REMARK   98  A    between atoms: _220  and  _221
REMARK   99  A    between atoms: _220  and  _223
REMARK  100  A    between atoms: _223  and  _224
REMARK  101  A    between atoms: _227  and  _229
REMARK  102  A    between atoms: _229  and  _230
REMARK  103  A    between atoms: _229  and  _232
REMARK  104  A    between atoms: _232  and  _233
REMARK  105  A    between atoms: _236  and  _238
REMARK  106  A    between atoms: _238  and  _239
REMARK  107  A    between atoms: _238  and  _241
REMARK  108  A    between atoms: _241  and  _242
REMARK  109  A    between atoms: _245  and  _247
REMARK  110  A    between atoms: _247  and  _248
REMARK  111  A    between atoms: _247  and  _250
REMARK  112  A    between atoms: _250  and  _251
REMARK  113  A    between atoms: _256  and  _258
REMARK  114  A    between atoms: _258  and  _259
REMARK  115  A    between atoms: _258  and  _261
REMARK  116  A    between atoms: _261  and  _262
REMARK  117  A    between atoms: _267  and  _269
REMARK  118  A    between atoms: _269  and  _270
REMARK  119  A    between atoms: _269  and  _272
REMARK  120  A    between atoms: _272  and  _273
REMARK  121  A    between atoms: _276  and  _278
REMARK  122  A    between atoms: _278  and  _279
REMARK  123  A    between atoms: _281  and  _283
REMARK  124  A    between atoms: _283  and  _284
REMARK  125  A    between atoms: _283  and  _286
REMARK  126  A    between atoms: _286  and  _287
REMARK  127  A    between atoms: _290  and  _292
REMARK  128  A    between atoms: _292  and  _293
REMARK  129  A    between atoms: _292  and  _295
REMARK  130  A    between atoms: _295  and  _296
REMARK  131  A    between atoms: _299  and  _301
REMARK  132  A    between atoms: _301  and  _302
REMARK  133  A    between atoms: _305  and  _307
REMARK  134  A    between atoms: _307  and  _308
REMARK  135  A    between atoms: _307  and  _310
REMARK  136  A    between atoms: _310  and  _311
REMARK  137  A    between atoms: _311  and  _312
REMARK  138  A    between atoms: _312  and  _313
REMARK  139  A    between atoms: _313  and  _314
REMARK  140  A    between atoms: _318  and  _320
REMARK  141  A    between atoms: _320  and  _321
REMARK  142  A    between atoms: _323  and  _325
REMARK  143  A    between atoms: _325  and  _326
REMARK  144  A    between atoms: _325  and  _328
REMARK  145  A    between atoms: _328  and  _329
REMARK  146  A    between atoms: _332  and  _334
REMARK  147  A    between atoms: _334  and  _335
REMARK  148  A    between atoms: _334  and  _337
REMARK  149  A    between atoms: _337  and  _338
REMARK  150  A    between atoms: _344  and  _346
REMARK  151  A    between atoms: _346  and  _347
REMARK  152  A    between atoms: _349  and  _351
REMARK  153  A    between atoms: _351  and  _352
REMARK  154  A    between atoms: _351  and  _354
REMARK  155  A    between atoms: _357  and  _359
REMARK  156  A    between atoms: _359  and  _360
REMARK  157  A    between atoms: _362  and  _364
REMARK  158  A    between atoms: _364  and  _365
REMARK  159  A    between atoms: _364  and  _367
REMARK  160  A    between atoms: _367  and  _368
REMARK  161  A    between atoms: _374  and  _376
REMARK  162  A    between atoms: _376  and  _377
REMARK  163  A    between atoms: _376  and  _379
REMARK  164  A    between atoms: _379  and  _380
REMARK  165  A    between atoms: _385  and  _386
REMARK  166  A    between atoms: _388  and  _390
REMARK  167  A    between atoms: _390  and  _391
REMARK  168  A    between atoms: _390  and  _393
REMARK  169  A    between atoms: _393  and  _394
REMARK  170  A    between atoms: _396  and  _398
REMARK  171  A    between atoms: _398  and  _399
REMARK  172  A    between atoms: _398  and  _401
REMARK  173  A    between atoms: _401  and  _402
REMARK  174  A    between atoms: _407  and  _408
REMARK  175  A    between atoms: _410  and  _412
REMARK  176  A    between atoms: _412  and  _413
REMARK  177  A    between atoms: _412  and  _415
REMARK  178  A    between atoms: _418  and  _420
REMARK  179  A    between atoms: _420  and  _421
REMARK  180  A    between atoms: _420  and  _423
REMARK  181  A    between atoms: _423  and  _424
REMARK  182  A    between atoms: _427  and  _429
REMARK  183  A    between atoms: _429  and  _430
REMARK  184  A    between atoms: _429  and  _432
REMARK  185  A    between atoms: _435  and  _437
REMARK  186  A    between atoms: _437  and  _438
REMARK  187  A    between atoms: _437  and  _440
REMARK  188  A    between atoms: _440  and  _441
REMARK  189  A    between atoms: _444  and  _446
REMARK  190  A    between atoms: _446  and  _447
REMARK  191  A    between atoms: _446  and  _449
REMARK  192  A    between atoms: _449  and  _450
REMARK  193  A    between atoms: _453  and  _455
REMARK  194  A    between atoms: _455  and  _456
REMARK  195  A    between atoms: _455  and  _458
REMARK  196  A    between atoms: _458  and  _459
REMARK  197  A    between atoms: _459  and  _460
REMARK  198  A    between atoms: _460  and  _461
REMARK  199  A    between atoms: _461  and  _462
REMARK  200  A    between atoms: _466  and  _468
REMARK  201  A    between atoms: _468  and  _469
REMARK  202  A    between atoms: _468  and  _471
REMARK  203  A    between atoms: _471  and  _472
REMARK  204  A    between atoms: _477  and  _479
REMARK  205  A    between atoms: _479  and  _480
REMARK  206  A    between atoms: _483  and  _485
REMARK  207  A    between atoms: _485  and  _486
REMARK  208  A    between atoms: _485  and  _488
REMARK  209  A    between atoms: _488  and  _489
REMARK  210  A    between atoms: _499  and  _501
REMARK  211  A    between atoms: _501  and  _502
REMARK  212  A    between atoms: _501  and  _504
REMARK  213  A    between atoms: _504  and  _505
REMARK  214  A    between atoms: _505  and  _506
REMARK  215  A    between atoms: _509  and  _511
REMARK  216  A    between atoms: _511  and  _512
REMARK  217  A    between atoms: _511  and  _514
REMARK  218  A    between atoms: _514  and  _515
REMARK  219  A    between atoms: _517  and  _519
REMARK  220  A    between atoms: _519  and  _520
REMARK  221  A    between atoms: _519  and  _522
REMARK  222  A    between atoms: _522  and  _523
REMARK  223  A    between atoms: _529  and  _531
REMARK  224  A    between atoms: _531  and  _532
REMARK  225  A    between atoms: _531  and  _534
REMARK  226  A    between atoms: _534  and  _535
REMARK  227  A    between atoms: _538  and  _540
REMARK  228  A    between atoms: _540  and  _541
REMARK  229  A    between atoms: _540  and  _543
REMARK  230  A    between atoms: _546  and  _548
REMARK  231  A    between atoms: _548  and  _549
REMARK  232  A    between atoms: _551  and  _553
REMARK  233  A    between atoms: _553  and  _554
REMARK  234  A    between atoms: _553  and  _556
REMARK  235  A    between atoms: _556  and  _557
REMARK  236  A    between atoms: _560  and  _562
REMARK  237  A    between atoms: _562  and  _563
REMARK  238  A    between atoms: _562  and  _565
REMARK  239  A    between atoms: _565  and  _566
REMARK  240  A    between atoms: _566  and  _567
REMARK  241  A    between atoms: _567  and  _568
REMARK  242  A    between atoms: _568  and  _569
REMARK  243  A    between atoms: _573  and  _575
REMARK  244  A    between atoms: _575  and  _576
REMARK  245  A    between atoms: _575  and  _578
REMARK                            x       y       z     vdW  Elec       q    Type
REMARK                         _______ _______ _______ _____ _____    ______ ____
ROOT
ATOM      1  CA  LEU A   1      15.199  31.513  33.370  0.00  0.00    +0.133 C 
ENDROOT
BRANCH   1   2
ATOM      2  N   LEU A   1      16.388  31.023  32.678  0.00  0.00    -0.239 NA
ATOM      3  H   LEU A   1      16.574  31.336  31.704  0.00  0.00    +0.142 HD
ENDBRANCH   1   2
BRANCH   1   4
ATOM      4  C   LEU A   1      14.294  30.352  33.753  0.00  0.00    +0.224 C 
ATOM      5  O   LEU A   1      13.792  30.276  34.877  0.00  0.00    -0.287 OA
ENDBRANCH   1   4
BRANCH   1   6
ATOM      6  CB  LEU A   1      14.414  32.476  32.477  0.00  0.00    +0.025 C 
BRANCH   6   7
ATOM      7  CG  LEU A   1      13.047  32.862  33.055  0.00  0.00    +0.002 C 
ATOM      8  CD2 LEU A   1      13.250  33.570  34.382  0.00  0.00    +0.000 C 
ATOM      9  CD1 LEU A   1      12.295  33.756  32.090  0.00  0.00    +0.000 C 
ENDBRANCH   6   7
ENDBRANCH   1   6
TORSDOF 4
REMARK  Name = ../refined-set-2016/2qg2/2qg2_pocket.pdb
REMARK  245 active torsions:
REMARK  status: ('A' for Active; 'I' for Inactive)
REMARK    1  A    between atoms: _1  and  _3
REMARK    2  A    between atoms: _3  and  _4
REMARK    3  A    between atoms: _3  and  _6
REMARK    4  A    between atoms: _6  and  _7
REMARK    5  A    between atoms: _13  and  _15
REMARK    6  A    between atoms: _15  and  _16
REMARK    7  A    between atoms: _15  and  _18
REMARK    8  A    between atoms: _18  and  _19
REMARK    9  A    between atoms: _22  and  _24
REMARK   10  A    between atoms: _24  and  _25
REMARK   11  A    between atoms: _24  and  _27
REMARK   12  A    between atoms: _27  and  _28
REMARK   13  A    between atoms: _31  and  _33
REMARK   14  A    between atoms: _33  and  _34
REMARK   15  A    between atoms: _33  and  _36
REMARK   16  A    between atoms: _36  and  _37
REMARK   17  A    between atoms: _37  and  _38
REMARK   18  A    between atoms: _41  and  _43
REMARK   19  A    between atoms: _43  and  _44
REMARK   20  A    between atoms: _43  and  _46
REMARK   21  A    between atoms: _46  and  _47
REMARK   22  A    between atoms: _50  and  _52
REMARK   23  A    between atoms: _52  and  _53
REMARK   24  A    between atoms: _52  and  _55
REMARK   25  A    between atoms: _55  and  _56
REMARK   26  A    between atoms: _59  and  _61
REMARK   27  A    between atoms: _61  and  _62
REMARK   28  A    between atoms: _61  and  _64
REMARK   29  A    between atoms: _64  and  _65
REMARK   30  A    between atoms: _67  and  _69
REMARK   31  A    between atoms: _69  and  _70
REMARK   32  A    between atoms: _69  and  _72
REMARK   33  A    between atoms: _72  and  _73
REMARK   34  A    between atoms: _78  and  _80
REMARK   35  A    between atoms: _80  and  _81
REMARK   36  A    between atoms: _80  and  _83
REMARK   37  A    between atoms: _83  and  _84
REMARK   38  A    between atoms: _86  and  _88
REMARK   39  A    between atoms: _88  and  _89
REMARK   40  A    between atoms: _88  and  _91
REMARK   41  A    between atoms: _91  and  _92
REMARK   42  A    between atoms: _94  and  _96
REMARK   43  A    between atoms: _96  and  _97
REMARK   44  A    between atoms: _96  and  _99
REMARK   45  A    between atoms: _99  and  _100
REMARK   46  A    between atoms: _103  and  _105
REMARK   47  A    between atoms: _105  and  _106
REMARK   48  A    between atoms: _109  and  _111
REMARK   49  A    between atoms: _111  and  _112
REMARK   50  A    between atoms: _111  and  _114
REMARK   51  A    between atoms: _114  and  _115
REMARK   52  A    between atoms: _118  and  _120
REMARK   53  A    between atoms: _120  and  _121
REMARK   54  A    between atoms: _120  and  _123
REMARK   55  A    between atoms: _123  and  _124
REMARK   56  A    between atoms: _124  and  _125
REMARK   57  A    between atoms: _125  and  _126
REMARK   58  A    between atoms: _126  and  _127
REMARK   59  A    between atoms: _131  and  _133
REMARK   60  A    between atoms: _133  and  _134
REMARK   61  A    between atoms: _133  and  _136
REMARK   62  A    between atoms: _136  and  _137
REMARK   63  A    between atoms: _140  and  _142
REMARK   64  A    between atoms: _142  and  _143
REMARK   65  A    between atoms: _142  and  _145
REMARK   66  A    between atoms: _145  and  _146
REMARK   67  A    between atoms: _149  and  _151
REMARK   68  A    between atoms: _151  and  _152
REMARK   69  A    between atoms: _151  and  _154
REMARK   70  A    between atoms: _157  and  _159
REMARK   71  A    between atoms: _159  and  _160
REMARK   72  A    between atoms: _159  and  _162
REMARK   73  A    between atoms: _162  and  _163
REMARK   74  A    between atoms: _166  and  _168
REMARK   75  A    between atoms: _168  and  _169
REMARK   76  A    between atoms: _168  and  _171
REMARK   77  A    between atoms: _171  and  _172
REMARK   78  A    between atoms: _175  and  _177
REMARK   79  A    between atoms: _177  and  _178
REMARK   80  A    between atoms: _180  and  _182
REMARK   81  A    between atoms: _182  and  _183
REMARK   82  A    between atoms: _182  and  _185
REMARK   83  A    between atoms: _185  and  _186
REMARK   84  A    between atoms: _189  and  _191
REMARK   85  A    between atoms: _191  and  _192
REMARK   86  A    between atoms: _194  and  _196
REMARK   87  A    between atoms: _196  and  _197
REMARK   88  A    between atoms: _196  and  _199
REMARK   89  A    between atoms: _199  and  _200
REMARK   90  A    between atoms: _200  and  _201
REMARK   91  A    between atoms: _203  and  _205
REMARK   92  A    between atoms: _205  and  _206
REMARK   93  A    between atoms: _205  and  _208
REMARK   94  A    between atoms: _208  and  _209
REMARK   95  A    between atoms: _212  and  _214
REMARK   96  A    between atoms: _214  and  _215
REMARK   97  A    between atoms: _218  and  _220
REMARK   98  A    between atoms: _220  and  _221
REMARK   99  A    between atoms: _220  and  _223
REMARK  100  A    between atoms: _223  and  _224
REMARK  101  A    between atoms: _227  and  _229
REMARK  102  A    between atoms: _229  and  _230
REMARK  103  A    between atoms: _229  and  _232
REMARK  104  A    between atoms: _232  and  _233
REMARK  105  A    between atoms: _236  and  _238
REMARK  106  A    between atoms: _238  and  _239
REMARK  107  A    between atoms: _238  and  _241
REMARK  108  A    between atoms: _241  and  _242
REMARK  109  A    between atoms: _245  and  _247
REMARK  110  A    between atoms: _247  and  _248
REMARK  111  A    between atoms: _247  and  _250
REMARK  112  A    between atoms: _250  and  _251
REMARK  113  A    between atoms: _256  and  _258
REMARK  114  A    between atoms: _258  and  _259
REMARK  115  A    between atoms: _258  and  _261
REMARK  116  A    between atoms: _261  and  _262
REMARK  117  A    between atoms: _267  and  _269
REMARK  118  A    between atoms: _269  and  _270
REMARK  119  A    between atoms: _269  and  _272
REMARK  120  A    between atoms: _272  and  _273
REMARK  121  A    between atoms: _276  and  _278
REMARK  122  A    between atoms: _278  and  _279
REMARK  123  A    between atoms: _281  and  _283
REMARK  124  A    between atoms: _283  and  _284
REMARK  125  A    between atoms: _283  and  _286
REMARK  126  A    between atoms: _286  and  _287
REMARK  127  A    between atoms: _290  and  _292
REMARK  128  A    between atoms: _292  and  _293
REMARK  129  A    between atoms: _292  and  _295
REMARK  130  A    between atoms: _295  and  _296
REMARK  131  A    between atoms: _299  and  _301
REMARK  132  A    between atoms: _301  and  _302
REMARK  133  A    between atoms: _305  and  _307
REMARK  134  A    between atoms: _307  and  _308
REMARK  135  A    between atoms: _307  and  _310
REMARK  136  A    between atoms: _310  and  _311
REMARK  137  A    between atoms: _311  and  _312
REMARK  138  A    between atoms: _312  and  _313
REMARK  139  A    between atoms: _313  and  _314
REMARK  140  A    between atoms: _318  and  _320
REMARK  141  A    between atoms: _320  and  _321
REMARK  142  A    between atoms: _323  and  _325
REMARK  143  A    between atoms: _325  and  _326
REMARK  144  A    between atoms: _325  and  _328
REMARK  145  A    between atoms: _328  and  _329
REMARK  146  A    between atoms: _332  and  _334
REMARK  147  A    between atoms: _334  and  _335
REMARK  148  A    between atoms: _334  and  _337
REMARK  149  A    between atoms: _337  and  _338
REMARK  150  A    between atoms: _344  and  _346
REMARK  151  A    between atoms: _346  and  _347
REMARK  152  A    between atoms: _349  and  _351
REMARK  153  A    between atoms: _351  and  _352
REMARK  154  A    between atoms: _351  and  _354
REMARK  155  A    between atoms: _357  and  _359
REMARK  156  A    between atoms: _359  and  _360
REMARK  157  A    between atoms: _362  and  _364
REMARK  158  A    between atoms: _364  and  _365
REMARK  159  A    between atoms: _364  and  _367
REMARK  160  A    between atoms: _367  and  _368
REMARK  161  A    between atoms: _374  and  _376
REMARK  162  A    between atoms: _376  and  _377
REMARK  163  A    between atoms: _376  and  _379
REMARK  164  A    between atoms: _379  and  _380
REMARK  165  A    between atoms: _385  and  _386
REMARK  166  A    between atoms: _388  and  _390
REMARK  167  A    between atoms: _390  and  _391
REMARK  168  A    between atoms: _390  and  _393
REMARK  169  A    between atoms: _393  and  _394
REMARK  170  A    between atoms: _396  and  _398
REMARK  171  A    between atoms: _398  and  _399
REMARK  172  A    between atoms: _398  and  _401
REMARK  173  A    between atoms: _401  and  _402
REMARK  174  A    between atoms: _407  and  _408
REMARK  175  A    between atoms: _410  and  _412
REMARK  176  A    between atoms: _412  and  _413
REMARK  177  A    between atoms: _412  and  _415
REMARK  178  A    between atoms: _418  and  _420
REMARK  179  A    between atoms: _420  and  _421
REMARK  180  A    between atoms: _420  and  _423
REMARK  181  A    between atoms: _423  and  _424
REMARK  182  A    between atoms: _427  and  _429
REMARK  183  A    between atoms: _429  and  _430
REMARK  184  A    between atoms: _429  and  _432
REMARK  185  A    between atoms: _435  and  _437
REMARK  186  A    between atoms: _437  and  _438
REMARK  187  A    between atoms: _437  and  _440
REMARK  188  A    between atoms: _440  and  _441
REMARK  189  A    between atoms: _444  and  _446
REMARK  190  A    between atoms: _446  and  _447
REMARK  191  A    between atoms: _446  and  _449
REMARK  192  A    between atoms: _449  and  _450
REMARK  193  A    between atoms: _453  and  _455
REMARK  194  A    between atoms: _455  and  _456
REMARK  195  A    between atoms: _455  and  _458
REMARK  196  A    between atoms: _458  and  _459
REMARK  197  A    between atoms: _459  and  _460
REMARK  198  A    between atoms: _460  and  _461
REMARK  199  A    between atoms: _461  and  _462
REMARK  200  A    between atoms: _466  and  _468
REMARK  201  A    between atoms: _468  and  _469
REMARK  202  A    between atoms: _468  and  _471
REMARK  203  A    between atoms: _471  and  _472
REMARK  204  A    between atoms: _477  and  _479
REMARK  205  A    between atoms: _479  and  _480
REMARK  206  A    between atoms: _483  and  _485
REMARK  207  A    between atoms: _485  and  _486
REMARK  208  A    between atoms: _485  and  _488
REMARK  209  A    between atoms: _488  and  _489
REMARK  210  A    between atoms: _499  and  _501
REMARK  211  A    between atoms: _501  and  _502
REMARK  212  A    between atoms: _501  and  _504
REMARK  213  A    between atoms: _504  and  _505
REMARK  214  A    between atoms: _505  and  _506
REMARK  215  A    between atoms: _509  and  _511
REMARK  216  A    between atoms: _511  and  _512
REMARK  217  A    between atoms: _511  and  _514
REMARK  218  A    between atoms: _514  and  _515
REMARK  219  A    between atoms: _517  and  _519
REMARK  220  A    between atoms: _519  and  _520
REMARK  221  A    between atoms: _519  and  _522
REMARK  222  A    between atoms: _522  and  _523
REMARK  223  A    between atoms: _529  and  _531
REMARK  224  A    between atoms: _531  and  _532
REMARK  225  A    between atoms: _531  and  _534
REMARK  226  A    between atoms: _534  and  _535
REMARK  227  A    between atoms: _538  and  _540
REMARK  228  A    between atoms: _540  and  _541
REMARK  229  A    between atoms: _540  and  _543
REMARK  230  A    between atoms: _546  and  _548
REMARK  231  A    between atoms: _548  and  _549
REMARK  232  A    between atoms: _551  and  _553
REMARK  233  A    between atoms: _553  and  _554
REMARK  234  A    between atoms: _553  and  _556
REMARK  235  A    between atoms: _556  and  _557
REMARK  236  A    between atoms: _560  and  _562
REMARK  237  A    between atoms: _562  and  _563
REMARK  238  A    between atoms: _562  and  _565
REMARK  239  A    between atoms: _565  and  _566
REMARK  240  A    between atoms: _566  and  _567
REMARK  241  A    between atoms: _567  and  _568
REMARK  242  A    between atoms: _568  and  _569
REMARK  243  A    between atoms: _573  and  _575
REMARK  244  A    between atoms: _575  and  _576
REMARK  245  A    between atoms: _575  and  _578
REMARK                            x       y       z     vdW  Elec       q    Type
REMARK                         _______ _______ _______ _____ _____    ______ ____
ROOT
ATOM      1  CA  ASN A   5      -1.203  37.441  28.418  0.00  0.00    +0.158 C 
ENDROOT
BRANCH   1   3
ATOM      2  C   SER A   4      -2.363  38.648  30.169  0.00  0.00    +0.243 C 
ATOM      3  N   ASN A   5      -1.662  37.582  29.794  0.00  0.00    -0.297 N 
ATOM      4  H   ASN A   5      -1.439  36.842  30.490  0.00  0.00    +0.150 HD
ATOM      5  O   SER A   4      -2.643  39.567  29.394  0.00  0.00    -0.273 OA
BRANCH   2   6
ATOM      6  CA  SER A   4      -2.814  38.681  31.625  0.00  0.00    +0.178 C 
BRANCH   6   8
ATOM      7  C   ILE A   3      -4.368  36.811  31.437  0.00  0.00    +0.241 C 
ATOM      8  N   SER A   4      -3.302  37.363  32.013  0.00  0.00    -0.295 N 
ATOM      9  H   SER A   4      -2.803  36.839  32.761  0.00  0.00    +0.150 HD
ATOM     10  O   ILE A   3      -5.018  37.371  30.549  0.00  0.00    -0.273 OA
BRANCH   7  11
ATOM     11  CA  ILE A   3      -4.744  35.411  31.923  0.00  0.00    +0.149 C 
BRANCH  11  13
ATOM     12  C   LEU A   2      -2.657  34.367  31.263  0.00  0.00    +0.241 C 
ATOM     13  N   ILE A   3      -3.512  34.687  32.231  0.00  0.00    -0.297 N 
ATOM     14  H   ILE A   3      -3.302  34.420  33.214  0.00  0.00    +0.150 HD
ATOM     15  O   LEU A   2      -2.870  34.634  30.078  0.00  0.00    -0.273 OA
BRANCH  12  16
ATOM     16  CA  LEU A   2      -1.385  33.629  31.677  0.00  0.00    +0.149 C 
BRANCH  16  18
ATOM     17  C   GLU A   1      -0.258  35.365  32.949  0.00  0.00    +0.238 C 
ATOM     18  N   LEU A   2      -0.839  34.168  32.919  0.00  0.00    -0.297 N 
ATOM     19  H   LEU A   2      -0.905  33.608  33.793  0.00  0.00    +0.150 HD
ATOM     20  O   GLU A   1      -0.142  36.082  31.947  0.00  0.00    -0.274 OA
BRANCH  17  21
ATOM     21  CA  GLU A   1       0.281  35.824  34.300  0.00  0.00    +0.145 C 
BRANCH  21  22
ATOM     22  N   GLU A   1      -0.621  35.502  35.394  0.00  0.00    -0.238 NA
ATOM     23  H   GLU A   1      -0.333  34.804  36.109  0.00  0.00    +0.142 HD
ENDBRANCH  21  22
BRANCH  21  24
ATOM     24  CB  GLU A   1       1.659  35.205  34.544  0.00  0.00    +0.038 C 
BRANCH  24  25
ATOM     25  CG  GLU A   1       2.406  35.789  35.738  0.00  0.00    +0.116 C 
BRANCH  25  26
ATOM     26  CD  GLU A   1       2.393  37.314  35.755  0.00  0.00    +0.365 C 
ATOM     27  OE2 GLU A   1       2.160  37.897  36.837  0.00  0.00    -0.246 OA
ATOM     28  OE1 GLU A   1       2.623  37.934  34.693  0.00  0.00    -0.246 OA
ENDBRANCH  25  26
ENDBRANCH  24  25
ENDBRANCH  21  24
ENDBRANCH  17  21
ENDBRANCH  16  18
BRANCH  16  29
ATOM     29  CB  LEU A   2      -1.673  32.129  31.822  0.00  0.00    +0.029 C 
BRANCH  29  30
ATOM     30  CG  LEU A   2      -0.444  31.248  32.080  0.00  0.00    +0.002 C 
ATOM     31  CD2 LEU A   2      -0.884  29.794  32.233  0.00  0.00    +0.000 C 
ATOM     32  CD1 LEU A   2       0.549  31.392  30.927  0.00  0.00    +0.000 C 
ENDBRANCH  29  30
ENDBRANCH  16  29
ENDBRANCH  12  16
ENDBRANCH  11  13
BRANCH  11  33
ATOM     33  CB  ILE A   3      -5.666  35.490  33.170  0.00  0.00    +0.027 C 
ATOM     34  CG2 ILE A   3      -6.780  36.507  32.947  0.00  0.00    +0.002 C 
BRANCH  33  35
ATOM     35  CG1 ILE A   3      -6.216  34.094  33.479  0.00  0.00    +0.002 C 
ATOM     36  CD1 ILE A   3      -7.105  34.018  34.717  0.00  0.00    +0.000 C 
ENDBRANCH  33  35
ENDBRANCH  11  33
ENDBRANCH   7  11
ENDBRANCH   6   8
BRANCH   6  37
ATOM     37  CB  SER A   4      -1.642  39.091  32.518  0.00  0.00    +0.166 C 
BRANCH  37  38
ATOM     38  OG  SER A   4      -1.072  40.303  32.063  0.00  0.00    -0.380 OA
ATOM     39  H   SER A   4      -0.745  40.185  31.136  0.00  0.00    +0.211 HD
ENDBRANCH  37  38
ENDBRANCH   6  37
ENDBRANCH   2   6
ENDBRANCH   1   3
BRANCH   1  40
ATOM     40  C   ASN A   5      -2.404  37.336  27.489  0.00  0.00    +0.241 C 
ATOM     41  N   SER A   6      -3.410  36.570  27.906  0.00  0.00    -0.295 N 
ATOM     42  H   SER A   6      -3.328  36.080  28.819  0.00  0.00    +0.150 HD
ATOM     43  O   ASN A   5      -2.414  37.933  26.421  0.00  0.00    -0.273 OA
BRANCH  41  44
ATOM     44  CA  SER A   6      -4.619  36.401  27.119  0.00  0.00    +0.178 C 
BRANCH  44  45
ATOM     45  C   SER A   6      -5.325  37.743  26.941  0.00  0.00    +0.243 C 
ATOM     46  N   SER A   7      -5.402  38.519  28.019  0.00  0.00    -0.295 N 
ATOM     47  H   SER A   7      -4.994  38.185  28.915  0.00  0.00    +0.150 HD
ATOM     48  O   SER A   6      -5.788  38.069  25.850  0.00  0.00    -0.273 OA
BRANCH  46  49
ATOM     49  CA  SER A   7      -6.048  39.833  27.973  0.00  0.00    +0.178 C 
BRANCH  49  50
ATOM     50  C   SER A   7      -5.337  40.757  26.980  0.00  0.00    +0.243 C 
ATOM     51  N   ASP A   8      -4.006  40.740  27.003  0.00  0.00    -0.296 N 
ATOM     52  H   ASP A   8      -3.518  40.125  27.685  0.00  0.00    +0.150 HD
ATOM     53  O   SER A   7      -5.986  41.469  26.206  0.00  0.00    -0.273 OA
BRANCH  51  54
ATOM     54  CA  ASP A   8      -3.213  41.565  26.092  0.00  0.00    +0.160 C 
BRANCH  54  55
ATOM     55  C   ASP A   8      -3.469  41.141  24.639  0.00  0.00    +0.241 C 
ATOM     56  N   ALA A   9      -3.553  39.831  24.417  0.00  0.00    -0.297 N 
ATOM     57  H   ALA A   9      -3.444  39.177  25.218  0.00  0.00    +0.150 HD
ATOM     58  O   ASP A   8      -3.584  41.986  23.742  0.00  0.00    -0.273 OA
BRANCH  56  59
ATOM     59  CA  ALA A   9      -3.793  39.282  23.083  0.00  0.00    +0.149 C 
ATOM     60  CB  ALA A   9      -3.641  37.767  23.106  0.00  0.00    +0.031 C 
BRANCH  59  61
ATOM     61  C   ALA A   9      -5.181  39.669  22.580  0.00  0.00    +0.241 C 
ATOM     62  N   LEU A  10      -6.149  39.710  23.490  0.00  0.00    -0.298 N 
ATOM     63  H   LEU A  10      -5.930  39.461  24.476  0.00  0.00    +0.150 HD
ATOM     64  O   ALA A   9      -5.373  39.920  21.388  0.00  0.00    -0.273 OA
BRANCH  62  65
ATOM     65  CA  LEU A  10      -7.509  40.095  23.138  0.00  0.00    +0.137 C 
BRANCH  65  66
ATOM     66  C   LEU A  10      -7.541  41.597  22.860  0.00  0.00    +0.227 C 
ATOM     67  O   LEU A  10      -8.159  42.044  21.893  0.00  0.00    -0.286 OA
ENDBRANCH  65  66
BRANCH  65  68
ATOM     68  CB  LEU A  10      -8.467  39.728  24.278  0.00  0.00    +0.028 C 
BRANCH  68  69
ATOM     69  CG  LEU A  10      -8.675  38.217  24.411  0.00  0.00    +0.002 C 
ATOM     70  CD2 LEU A  10      -9.213  37.873  25.795  0.00  0.00    +0.000 C 
ATOM     71  CD1 LEU A  10      -9.634  37.748  23.311  0.00  0.00    +0.000 C 
ENDBRANCH  68  69
ENDBRANCH  65  68
ENDBRANCH  62  65
ENDBRANCH  59  61
ENDBRANCH  56  59
ENDBRANCH  54  55
BRANCH  54  72
ATOM     72  CB  ASP A   8      -1.716  41.429  26.404  0.00  0.00    +0.143 C 
BRANCH  72  73
ATOM     73  CG  ASP A   8      -1.323  42.074  27.726  0.00  0.00    +0.367 C 
ATOM     74  OD2 ASP A   8      -2.146  42.803  28.312  0.00  0.00    -0.246 OA
ATOM     75  OD1 ASP A   8      -0.180  41.859  28.175  0.00  0.00    -0.246 OA
ENDBRANCH  72  73
ENDBRANCH  54  72
ENDBRANCH  51  54
ENDBRANCH  49  50
BRANCH  49  76
ATOM     76  CB  SER A   7      -6.046  40.471  29.364  0.00  0.00    +0.166 C 
BRANCH  76  77
ATOM     77  OG  SER A   7      -6.749  41.701  29.355  0.00  0.00    -0.380 OA
ATOM     78  H   SER A   7      -6.316  42.323  28.718  0.00  0.00    +0.211 HD
ENDBRANCH  76  77
ENDBRANCH  49  76
ENDBRANCH  46  49
ENDBRANCH  44  45
BRANCH  44  79
ATOM     79  CB  SER A   6      -5.559  35.404  27.804  0.00  0.00    +0.166 C 
BRANCH  79  80
ATOM     80  OG  SER A   6      -5.045  34.084  27.704  0.00  0.00    -0.380 OA
ATOM     81  H   SER A   6      -4.955  33.838  26.749  0.00  0.00    +0.211 HD
ENDBRANCH  79  80
ENDBRANCH  44  79
ENDBRANCH  41  44
ENDBRANCH   1  40
BRANCH   1  82
ATOM     82  CB  ASN A   5      -0.316  36.201  28.260  0.00  0.00    +0.114 C 
BRANCH  82  83
ATOM     83  CG  ASN A   5       1.080  36.413  28.821  0.00  0.00    +0.222 C 
ATOM     84  OD1 ASN A   5       1.470  37.542  29.134  0.00  0.00    -0.275 OA
ATOM     85  ND2 ASN A   5       1.846  35.335  28.932  0.00  0.00    -0.329 N 
ATOM     86 HD21 ASN A   5       2.817  35.422  29.295  0.00  0.00    +0.145 HD
ATOM     87 HD22 ASN A   5       1.476  34.403  28.656  0.00  0.00    +0.145 HD
ENDBRANCH  82  83
ENDBRANCH   1  82
TORSDOF 39
REMARK  Name = ../refined-set-2016/2qg2/2qg2_pocket.pdb
REMARK  245 active torsions:
REMARK  status: ('A' for Active; 'I' for Inactive)
REMARK    1  A    between atoms: _1  and  _3
REMARK    2  A    between atoms: _3  and  _4
REMARK    3  A    between atoms: _3  and  _6
REMARK    4  A    between atoms: _6  and  _7
REMARK    5  A    between atoms: _13  and  _15
REMARK    6  A    between atoms: _15  and  _16
REMARK    7  A    between atoms: _15  and  _18
REMARK    8  A    between atoms: _18  and  _19
REMARK    9  A    between atoms: _22  and  _24
REMARK   10  A    between atoms: _24  and  _25
REMARK   11  A    between atoms: _24  and  _27
REMARK   12  A    between atoms: _27  and  _28
REMARK   13  A    between atoms: _31  and  _33
REMARK   14  A    between atoms: _33  and  _34
REMARK   15  A    between atoms: _33  and  _36
REMARK   16  A    between atoms: _36  and  _37
REMARK   17  A    between atoms: _37  and  _38
REMARK   18  A    between atoms: _41  and  _43
REMARK   19  A    between atoms: _43  and  _44
REMARK   20  A    between atoms: _43  and  _46
REMARK   21  A    between atoms: _46  and  _47
REMARK   22  A    between atoms: _50  and  _52
REMARK   23  A    between atoms: _52  and  _53
REMARK   24  A    between atoms: _52  and  _55
REMARK   25  A    between atoms: _55  and  _56
REMARK   26  A    between atoms: _59  and  _61
REMARK   27  A    between atoms: _61  and  _62
REMARK   28  A    between atoms: _61  and  _64
REMARK   29  A    between atoms: _64  and  _65
REMARK   30  A    between atoms: _67  and  _69
REMARK   31  A    between atoms: _69  and  _70
REMARK   32  A    between atoms: _69  and  _72
REMARK   33  A    between atoms: _72  and  _73
REMARK   34  A    between atoms: _78  and  _80
REMARK   35  A    between atoms: _80  and  _81
REMARK   36  A    between atoms: _80  and  _83
REMARK   37  A    between atoms: _83  and  _84
REMARK   38  A    between atoms: _86  and  _88
REMARK   39  A    between atoms: _88  and  _89
REMARK   40  A    between atoms: _88  and  _91
REMARK   41  A    between atoms: _91  and  _92
REMARK   42  A    between atoms: _94  and  _96
REMARK   43  A    between atoms: _96  and  _97
REMARK   44  A    between atoms: _96  and  _99
REMARK   45  A    between atoms: _99  and  _100
REMARK   46  A    between atoms: _103  and  _105
REMARK   47  A    between atoms: _105  and  _106
REMARK   48  A    between atoms: _109  and  _111
REMARK   49  A    between atoms: _111  and  _112
REMARK   50  A    between atoms: _111  and  _114
REMARK   51  A    between atoms: _114  and  _115
REMARK   52  A    between atoms: _118  and  _120
REMARK   53  A    between atoms: _120  and  _121
REMARK   54  A    between atoms: _120  and  _123
REMARK   55  A    between atoms: _123  and  _124
REMARK   56  A    between atoms: _124  and  _125
REMARK   57  A    between atoms: _125  and  _126
REMARK   58  A    between atoms: _126  and  _127
REMARK   59  A    between atoms: _131  and  _133
REMARK   60  A    between atoms: _133  and  _134
REMARK   61  A    between atoms: _133  and  _136
REMARK   62  A    between atoms: _136  and  _137
REMARK   63  A    between atoms: _140  and  _142
REMARK   64  A    between atoms: _142  and  _143
REMARK   65  A    between atoms: _142  and  _145
REMARK   66  A    between atoms: _145  and  _146
REMARK   67  A    between atoms: _149  and  _151
REMARK   68  A    between atoms: _151  and  _152
REMARK   69  A    between atoms: _151  and  _154
REMARK   70  A    between atoms: _157  and  _159
REMARK   71  A    between atoms: _159  and  _160
REMARK   72  A    between atoms: _159  and  _162
REMARK   73  A    between atoms: _162  and  _163
REMARK   74  A    between atoms: _166  and  _168
REMARK   75  A    between atoms: _168  and  _169
REMARK   76  A    between atoms: _168  and  _171
REMARK   77  A    between atoms: _171  and  _172
REMARK   78  A    between atoms: _175  and  _177
REMARK   79  A    between atoms: _177  and  _178
REMARK   80  A    between atoms: _180  and  _182
REMARK   81  A    between atoms: _182  and  _183
REMARK   82  A    between atoms: _182  and  _185
REMARK   83  A    between atoms: _185  and  _186
REMARK   84  A    between atoms: _189  and  _191
REMARK   85  A    between atoms: _191  and  _192
REMARK   86  A    between atoms: _194  and  _196
REMARK   87  A    between atoms: _196  and  _197
REMARK   88  A    between atoms: _196  and  _199
REMARK   89  A    between atoms: _199  and  _200
REMARK   90  A    between atoms: _200  and  _201
REMARK   91  A    between atoms: _203  and  _205
REMARK   92  A    between atoms: _205  and  _206
REMARK   93  A    between atoms: _205  and  _208
REMARK   94  A    between atoms: _208  and  _209
REMARK   95  A    between atoms: _212  and  _214
REMARK   96  A    between atoms: _214  and  _215
REMARK   97  A    between atoms: _218  and  _220
REMARK   98  A    between atoms: _220  and  _221
REMARK   99  A    between atoms: _220  and  _223
REMARK  100  A    between atoms: _223  and  _224
REMARK  101  A    between atoms: _227  and  _229
REMARK  102  A    between atoms: _229  and  _230
REMARK  103  A    between atoms: _229  and  _232
REMARK  104  A    between atoms: _232  and  _233
REMARK  105  A    between atoms: _236  and  _238
REMARK  106  A    between atoms: _238  and  _239
REMARK  107  A    between atoms: _238  and  _241
REMARK  108  A    between atoms: _241  and  _242
REMARK  109  A    between atoms: _245  and  _247
REMARK  110  A    between atoms: _247  and  _248
REMARK  111  A    between atoms: _247  and  _250
REMARK  112  A    between atoms: _250  and  _251
REMARK  113  A    between atoms: _256  and  _258
REMARK  114  A    between atoms: _258  and  _259
REMARK  115  A    between atoms: _258  and  _261
REMARK  116  A    between atoms: _261  and  _262
REMARK  117  A    between atoms: _267  and  _269
REMARK  118  A    between atoms: _269  and  _270
REMARK  119  A    between atoms: _269  and  _272
REMARK  120  A    between atoms: _272  and  _273
REMARK  121  A    between atoms: _276  and  _278
REMARK  122  A    between atoms: _278  and  _279
REMARK  123  A    between atoms: _281  and  _283
REMARK  124  A    between atoms: _283  and  _284
REMARK  125  A    between atoms: _283  and  _286
REMARK  126  A    between atoms: _286  and  _287
REMARK  127  A    between atoms: _290  and  _292
REMARK  128  A    between atoms: _292  and  _293
REMARK  129  A    between atoms: _292  and  _295
REMARK  130  A    between atoms: _295  and  _296
REMARK  131  A    between atoms: _299  and  _301
REMARK  132  A    between atoms: _301  and  _302
REMARK  133  A    between atoms: _305  and  _307
REMARK  134  A    between atoms: _307  and  _308
REMARK  135  A    between atoms: _307  and  _310
REMARK  136  A    between atoms: _310  and  _311
REMARK  137  A    between atoms: _311  and  _312
REMARK  138  A    between atoms: _312  and  _313
REMARK  139  A    between atoms: _313  and  _314
REMARK  140  A    between atoms: _318  and  _320
REMARK  141  A    between atoms: _320  and  _321
REMARK  142  A    between atoms: _323  and  _325
REMARK  143  A    between atoms: _325  and  _326
REMARK  144  A    between atoms: _325  and  _328
REMARK  145  A    between atoms: _328  and  _329
REMARK  146  A    between atoms: _332  and  _334
REMARK  147  A    between atoms: _334  and  _335
REMARK  148  A    between atoms: _334  and  _337
REMARK  149  A    between atoms: _337  and  _338
REMARK  150  A    between atoms: _344  and  _346
REMARK  151  A    between atoms: _346  and  _347
REMARK  152  A    between atoms: _349  and  _351
REMARK  153  A    between atoms: _351  and  _352
REMARK  154  A    between atoms: _351  and  _354
REMARK  155  A    between atoms: _357  and  _359
REMARK  156  A    between atoms: _359  and  _360
REMARK  157  A    between atoms: _362  and  _364
REMARK  158  A    between atoms: _364  and  _365
REMARK  159  A    between atoms: _364  and  _367
REMARK  160  A    between atoms: _367  and  _368
REMARK  161  A    between atoms: _374  and  _376
REMARK  162  A    between atoms: _376  and  _377
REMARK  163  A    between atoms: _376  and  _379
REMARK  164  A    between atoms: _379  and  _380
REMARK  165  A    between atoms: _385  and  _386
REMARK  166  A    between atoms: _388  and  _390
REMARK  167  A    between atoms: _390  and  _391
REMARK  168  A    between atoms: _390  and  _393
REMARK  169  A    between atoms: _393  and  _394
REMARK  170  A    between atoms: _396  and  _398
REMARK  171  A    between atoms: _398  and  _399
REMARK  172  A    between atoms: _398  and  _401
REMARK  173  A    between atoms: _401  and  _402
REMARK  174  A    between atoms: _407  and  _408
REMARK  175  A    between atoms: _410  and  _412
REMARK  176  A    between atoms: _412  and  _413
REMARK  177  A    between atoms: _412  and  _415
REMARK  178  A    between atoms: _418  and  _420
REMARK  179  A    between atoms: _420  and  _421
REMARK  180  A    between atoms: _420  and  _423
REMARK  181  A    between atoms: _423  and  _424
REMARK  182  A    between atoms: _427  and  _429
REMARK  183  A    between atoms: _429  and  _430
REMARK  184  A    between atoms: _429  and  _432
REMARK  185  A    between atoms: _435  and  _437
REMARK  186  A    between atoms: _437  and  _438
REMARK  187  A    between atoms: _437  and  _440
REMARK  188  A    between atoms: _440  and  _441
REMARK  189  A    between atoms: _444  and  _446
REMARK  190  A    between atoms: _446  and  _447
REMARK  191  A    between atoms: _446  and  _449
REMARK  192  A    between atoms: _449  and  _450
REMARK  193  A    between atoms: _453  and  _455
REMARK  194  A    between atoms: _455  and  _456
REMARK  195  A    between atoms: _455  and  _458
REMARK  196  A    between atoms: _458  and  _459
REMARK  197  A    between atoms: _459  and  _460
REMARK  198  A    between atoms: _460  and  _461
REMARK  199  A    between atoms: _461  and  _462
REMARK  200  A    between atoms: _466  and  _468
REMARK  201  A    between atoms: _468  and  _469
REMARK  202  A    between atoms: _468  and  _471
REMARK  203  A    between atoms: _471  and  _472
REMARK  204  A    between atoms: _477  and  _479
REMARK  205  A    between atoms: _479  and  _480
REMARK  206  A    between atoms: _483  and  _485
REMARK  207  A    between atoms: _485  and  _486
REMARK  208  A    between atoms: _485  and  _488
REMARK  209  A    between atoms: _488  and  _489
REMARK  210  A    between atoms: _499  and  _501
REMARK  211  A    between atoms: _501  and  _502
REMARK  212  A    between atoms: _501  and  _504
REMARK  213  A    between atoms: _504  and  _505
REMARK  214  A    between atoms: _505  and  _506
REMARK  215  A    between atoms: _509  and  _511
REMARK  216  A    between atoms: _511  and  _512
REMARK  217  A    between atoms: _511  and  _514
REMARK  218  A    between atoms: _514  and  _515
REMARK  219  A    between atoms: _517  and  _519
REMARK  220  A    between atoms: _519  and  _520
REMARK  221  A    between atoms: _519  and  _522
REMARK  222  A    between atoms: _522  and  _523
REMARK  223  A    between atoms: _529  and  _531
REMARK  224  A    between atoms: _531  and  _532
REMARK  225  A    between atoms: _531  and  _534
REMARK  226  A    between atoms: _534  and  _535
REMARK  227  A    between atoms: _538  and  _540
REMARK  228  A    between atoms: _540  and  _541
REMARK  229  A    between atoms: _540  and  _543
REMARK  230  A    between atoms: _546  and  _548
REMARK  231  A    between atoms: _548  and  _549
REMARK  232  A    between atoms: _551  and  _553
REMARK  233  A    between atoms: _553  and  _554
REMARK  234  A    between atoms: _553  and  _556
REMARK  235  A    between atoms: _556  and  _557
REMARK  236  A    between atoms: _560  and  _562
REMARK  237  A    between atoms: _562  and  _563
REMARK  238  A    between atoms: _562  and  _565
REMARK  239  A    between atoms: _565  and  _566
REMARK  240  A    between atoms: _566  and  _567
REMARK  241  A    between atoms: _567  and  _568
REMARK  242  A    between atoms: _568  and  _569
REMARK  243  A    between atoms: _573  and  _575
REMARK  244  A    between atoms: _575  and  _576
REMARK  245  A    between atoms: _575  and  _578
REMARK                            x       y       z     vdW  Elec       q    Type
REMARK                         _______ _______ _______ _____ _____    ______ ____
ROOT
ATOM      1  CA  LYS A   1      -4.561  43.529  20.441  0.00  0.00    +0.145 C 
ENDROOT
BRANCH   1   2
ATOM      2  C   LYS A   1      -5.455  43.251  19.237  0.00  0.00    +0.238 C 
ATOM      3  N   ILE A   2      -6.107  42.090  19.203  0.00  0.00    -0.298 N 
ATOM      4  H   ILE A   2      -5.997  41.399  19.973  0.00  0.00    +0.150 HD
ATOM      5  O   LYS A   1      -5.549  44.084  18.331  0.00  0.00    -0.274 OA
BRANCH   3   6
ATOM      6  CA  ILE A   2      -6.978  41.803  18.069  0.00  0.00    +0.137 C 
BRANCH   6   7
ATOM      7  CB  ILE A   2      -7.542  40.359  18.113  0.00  0.00    +0.026 C 
ATOM      8  CG2 ILE A   2      -8.410  40.157  19.338  0.00  0.00    +0.002 C 
BRANCH   7   9
ATOM      9  CG1 ILE A   2      -8.347  40.088  16.843  0.00  0.00    +0.002 C 
ATOM     10  CD1 ILE A   2      -7.525  40.185  15.580  0.00  0.00    +0.000 C 
ENDBRANCH   7   9
ENDBRANCH   6   7
BRANCH   6  11
ATOM     11  C   ILE A   2      -8.130  42.814  18.057  0.00  0.00    +0.227 C 
ATOM     12  O   ILE A   2      -8.567  43.268  16.998  0.00  0.00    -0.286 OA
ENDBRANCH   6  11
ENDBRANCH   3   6
ENDBRANCH   1   2
BRANCH   1  13
ATOM     13  N   LYS A   1      -5.217  43.331  21.727  0.00  0.00    -0.238 NA
ATOM     14  H   LYS A   1      -4.879  42.581  22.363  0.00  0.00    +0.142 HD
ENDBRANCH   1  13
BRANCH   1  15
ATOM     15  CB  LYS A   1      -3.289  42.683  20.352  0.00  0.00    +0.026 C 
BRANCH  15  16
ATOM     16  CG  LYS A   1      -2.349  43.129  19.238  0.00  0.00    -0.000 C 
BRANCH  16  17
ATOM     17  CD  LYS A   1      -0.999  42.430  19.314  0.00  0.00    -0.024 C 
BRANCH  17  18
ATOM     18  CE  LYS A   1      -0.026  43.046  18.327  0.00  0.00    -0.086 C 
BRANCH  18  19
ATOM     19  NZ  LYS A   1       1.306  42.394  18.369  0.00  0.00    +0.380 N 
ATOM     20  HZ1 LYS A   1       1.708  42.492  19.323  0.00  0.00    -0.089 HD
ATOM     21  HZ2 LYS A   1       1.205  41.386  18.136  0.00  0.00    -0.089 HD
ATOM     22  HZ3 LYS A   1       1.935  42.849  17.678  0.00  0.00    -0.089 HD
ENDBRANCH  18  19
ENDBRANCH  17  18
ENDBRANCH  16  17
ENDBRANCH  15  16
ENDBRANCH   1  15
TORSDOF 11
REMARK  Name = ../refined-set-2016/2qg2/2qg2_pocket.pdb
REMARK  245 active torsions:
REMARK  status: ('A' for Active; 'I' for Inactive)
REMARK    1  A    between atoms: _1  and  _3
REMARK    2  A    between atoms: _3  and  _4
REMARK    3  A    between atoms: _3  and  _6
REMARK    4  A    between atoms: _6  and  _7
REMARK    5  A    between atoms: _13  and  _15
REMARK    6  A    between atoms: _15  and  _16
REMARK    7  A    between atoms: _15  and  _18
REMARK    8  A    between atoms: _18  and  _19
REMARK    9  A    between atoms: _22  and  _24
REMARK   10  A    between atoms: _24  and  _25
REMARK   11  A    between atoms: _24  and  _27
REMARK   12  A    between atoms: _27  and  _28
REMARK   13  A    between atoms: _31  and  _33
REMARK   14  A    between atoms: _33  and  _34
REMARK   15  A    between atoms: _33  and  _36
REMARK   16  A    between atoms: _36  and  _37
REMARK   17  A    between atoms: _37  and  _38
REMARK   18  A    between atoms: _41  and  _43
REMARK   19  A    between atoms: _43  and  _44
REMARK   20  A    between atoms: _43  and  _46
REMARK   21  A    between atoms: _46  and  _47
REMARK   22  A    between atoms: _50  and  _52
REMARK   23  A    between atoms: _52  and  _53
REMARK   24  A    between atoms: _52  and  _55
REMARK   25  A    between atoms: _55  and  _56
REMARK   26  A    between atoms: _59  and  _61
REMARK   27  A    between atoms: _61  and  _62
REMARK   28  A    between atoms: _61  and  _64
REMARK   29  A    between atoms: _64  and  _65
REMARK   30  A    between atoms: _67  and  _69
REMARK   31  A    between atoms: _69  and  _70
REMARK   32  A    between atoms: _69  and  _72
REMARK   33  A    between atoms: _72  and  _73
REMARK   34  A    between atoms: _78  and  _80
REMARK   35  A    between atoms: _80  and  _81
REMARK   36  A    between atoms: _80  and  _83
REMARK   37  A    between atoms: _83  and  _84
REMARK   38  A    between atoms: _86  and  _88
REMARK   39  A    between atoms: _88  and  _89
REMARK   40  A    between atoms: _88  and  _91
REMARK   41  A    between atoms: _91  and  _92
REMARK   42  A    between atoms: _94  and  _96
REMARK   43  A    between atoms: _96  and  _97
REMARK   44  A    between atoms: _96  and  _99
REMARK   45  A    between atoms: _99  and  _100
REMARK   46  A    between atoms: _103  and  _105
REMARK   47  A    between atoms: _105  and  _106
REMARK   48  A    between atoms: _109  and  _111
REMARK   49  A    between atoms: _111  and  _112
REMARK   50  A    between atoms: _111  and  _114
REMARK   51  A    between atoms: _114  and  _115
REMARK   52  A    between atoms: _118  and  _120
REMARK   53  A    between atoms: _120  and  _121
REMARK   54  A    between atoms: _120  and  _123
REMARK   55  A    between atoms: _123  and  _124
REMARK   56  A    between atoms: _124  and  _125
REMARK   57  A    between atoms: _125  and  _126
REMARK   58  A    between atoms: _126  and  _127
REMARK   59  A    between atoms: _131  and  _133
REMARK   60  A    between atoms: _133  and  _134
REMARK   61  A    between atoms: _133  and  _136
REMARK   62  A    between atoms: _136  and  _137
REMARK   63  A    between atoms: _140  and  _142
REMARK   64  A    between atoms: _142  and  _143
REMARK   65  A    between atoms: _142  and  _145
REMARK   66  A    between atoms: _145  and  _146
REMARK   67  A    between atoms: _149  and  _151
REMARK   68  A    between atoms: _151  and  _152
REMARK   69  A    between atoms: _151  and  _154
REMARK   70  A    between atoms: _157  and  _159
REMARK   71  A    between atoms: _159  and  _160
REMARK   72  A    between atoms: _159  and  _162
REMARK   73  A    between atoms: _162  and  _163
REMARK   74  A    between atoms: _166  and  _168
REMARK   75  A    between atoms: _168  and  _169
REMARK   76  A    between atoms: _168  and  _171
REMARK   77  A    between atoms: _171  and  _172
REMARK   78  A    between atoms: _175  and  _177
REMARK   79  A    between atoms: _177  and  _178
REMARK   80  A    between atoms: _180  and  _182
REMARK   81  A    between atoms: _182  and  _183
REMARK   82  A    between atoms: _182  and  _185
REMARK   83  A    between atoms: _185  and  _186
REMARK   84  A    between atoms: _189  and  _191
REMARK   85  A    between atoms: _191  and  _192
REMARK   86  A    between atoms: _194  and  _196
REMARK   87  A    between atoms: _196  and  _197
REMARK   88  A    between atoms: _196  and  _199
REMARK   89  A    between atoms: _199  and  _200
REMARK   90  A    between atoms: _200  and  _201
REMARK   91  A    between atoms: _203  and  _205
REMARK   92  A    between atoms: _205  and  _206
REMARK   93  A    between atoms: _205  and  _208
REMARK   94  A    between atoms: _208  and  _209
REMARK   95  A    between atoms: _212  and  _214
REMARK   96  A    between atoms: _214  and  _215
REMARK   97  A    between atoms: _218  and  _220
REMARK   98  A    between atoms: _220  and  _221
REMARK   99  A    between atoms: _220  and  _223
REMARK  100  A    between atoms: _223  and  _224
REMARK  101  A    between atoms: _227  and  _229
REMARK  102  A    between atoms: _229  and  _230
REMARK  103  A    between atoms: _229  and  _232
REMARK  104  A    between atoms: _232  and  _233
REMARK  105  A    between atoms: _236  and  _238
REMARK  106  A    between atoms: _238  and  _239
REMARK  107  A    between atoms: _238  and  _241
REMARK  108  A    between atoms: _241  and  _242
REMARK  109  A    between atoms: _245  and  _247
REMARK  110  A    between atoms: _247  and  _248
REMARK  111  A    between atoms: _247  and  _250
REMARK  112  A    between atoms: _250  and  _251
REMARK  113  A    between atoms: _256  and  _258
REMARK  114  A    between atoms: _258  and  _259
REMARK  115  A    between atoms: _258  and  _261
REMARK  116  A    between atoms: _261  and  _262
REMARK  117  A    between atoms: _267  and  _269
REMARK  118  A    between atoms: _269  and  _270
REMARK  119  A    between atoms: _269  and  _272
REMARK  120  A    between atoms: _272  and  _273
REMARK  121  A    between atoms: _276  and  _278
REMARK  122  A    between atoms: _278  and  _279
REMARK  123  A    between atoms: _281  and  _283
REMARK  124  A    between atoms: _283  and  _284
REMARK  125  A    between atoms: _283  and  _286
REMARK  126  A    between atoms: _286  and  _287
REMARK  127  A    between atoms: _290  and  _292
REMARK  128  A    between atoms: _292  and  _293
REMARK  129  A    between atoms: _292  and  _295
REMARK  130  A    between atoms: _295  and  _296
REMARK  131  A    between atoms: _299  and  _301
REMARK  132  A    between atoms: _301  and  _302
REMARK  133  A    between atoms: _305  and  _307
REMARK  134  A    between atoms: _307  and  _308
REMARK  135  A    between atoms: _307  and  _310
REMARK  136  A    between atoms: _310  and  _311
REMARK  137  A    between atoms: _311  and  _312
REMARK  138  A    between atoms: _312  and  _313
REMARK  139  A    between atoms: _313  and  _314
REMARK  140  A    between atoms: _318  and  _320
REMARK  141  A    between atoms: _320  and  _321
REMARK  142  A    between atoms: _323  and  _325
REMARK  143  A    between atoms: _325  and  _326
REMARK  144  A    between atoms: _325  and  _328
REMARK  145  A    between atoms: _328  and  _329
REMARK  146  A    between atoms: _332  and  _334
REMARK  147  A    between atoms: _334  and  _335
REMARK  148  A    between atoms: _334  and  _337
REMARK  149  A    between atoms: _337  and  _338
REMARK  150  A    between atoms: _344  and  _346
REMARK  151  A    between atoms: _346  and  _347
REMARK  152  A    between atoms: _349  and  _351
REMARK  153  A    between atoms: _351  and  _352
REMARK  154  A    between atoms: _351  and  _354
REMARK  155  A    between atoms: _357  and  _359
REMARK  156  A    between atoms: _359  and  _360
REMARK  157  A    between atoms: _362  and  _364
REMARK  158  A    between atoms: _364  and  _365
REMARK  159  A    between atoms: _364  and  _367
REMARK  160  A    between atoms: _367  and  _368
REMARK  161  A    between atoms: _374  and  _376
REMARK  162  A    between atoms: _376  and  _377
REMARK  163  A    between atoms: _376  and  _379
REMARK  164  A    between atoms: _379  and  _380
REMARK  165  A    between atoms: _385  and  _386
REMARK  166  A    between atoms: _388  and  _390
REMARK  167  A    between atoms: _390  and  _391
REMARK  168  A    between atoms: _390  and  _393
REMARK  169  A    between atoms: _393  and  _394
REMARK  170  A    between atoms: _396  and  _398
REMARK  171  A    between atoms: _398  and  _399
REMARK  172  A    between atoms: _398  and  _401
REMARK  173  A    between atoms: _401  and  _402
REMARK  174  A    between atoms: _407  and  _408
REMARK  175  A    between atoms: _410  and  _412
REMARK  176  A    between atoms: _412  and  _413
REMARK  177  A    between atoms: _412  and  _415
REMARK  178  A    between atoms: _418  and  _420
REMARK  179  A    between atoms: _420  and  _421
REMARK  180  A    between atoms: _420  and  _423
REMARK  181  A    between atoms: _423  and  _424
REMARK  182  A    between atoms: _427  and  _429
REMARK  183  A    between atoms: _429  and  _430
REMARK  184  A    between atoms: _429  and  _432
REMARK  185  A    between atoms: _435  and  _437
REMARK  186  A    between atoms: _437  and  _438
REMARK  187  A    between atoms: _437  and  _440
REMARK  188  A    between atoms: _440  and  _441
REMARK  189  A    between atoms: _444  and  _446
REMARK  190  A    between atoms: _446  and  _447
REMARK  191  A    between atoms: _446  and  _449
REMARK  192  A    between atoms: _449  and  _450
REMARK  193  A    between atoms: _453  and  _455
REMARK  194  A    between atoms: _455  and  _456
REMARK  195  A    between atoms: _455  and  _458
REMARK  196  A    between atoms: _458  and  _459
REMARK  197  A    between atoms: _459  and  _460
REMARK  198  A    between atoms: _460  and  _461
REMARK  199  A    between atoms: _461  and  _462
REMARK  200  A    between atoms: _466  and  _468
REMARK  201  A    between atoms: _468  and  _469
REMARK  202  A    between atoms: _468  and  _471
REMARK  203  A    between atoms: _471  and  _472
REMARK  204  A    between atoms: _477  and  _479
REMARK  205  A    between atoms: _479  and  _480
REMARK  206  A    between atoms: _483  and  _485
REMARK  207  A    between atoms: _485  and  _486
REMARK  208  A    between atoms: _485  and  _488
REMARK  209  A    between atoms: _488  and  _489
REMARK  210  A    between atoms: _499  and  _501
REMARK  211  A    between atoms: _501  and  _502
REMARK  212  A    between atoms: _501  and  _504
REMARK  213  A    between atoms: _504  and  _505
REMARK  214  A    between atoms: _505  and  _506
REMARK  215  A    between atoms: _509  and  _511
REMARK  216  A    between atoms: _511  and  _512
REMARK  217  A    between atoms: _511  and  _514
REMARK  218  A    between atoms: _514  and  _515
REMARK  219  A    between atoms: _517  and  _519
REMARK  220  A    between atoms: _519  and  _520
REMARK  221  A    between atoms: _519  and  _522
REMARK  222  A    between atoms: _522  and  _523
REMARK  223  A    between atoms: _529  and  _531
REMARK  224  A    between atoms: _531  and  _532
REMARK  225  A    between atoms: _531  and  _534
REMARK  226  A    between atoms: _534  and  _535
REMARK  227  A    between atoms: _538  and  _540
REMARK  228  A    between atoms: _540  and  _541
REMARK  229  A    between atoms: _540  and  _543
REMARK  230  A    between atoms: _546  and  _548
REMARK  231  A    between atoms: _548  and  _549
REMARK  232  A    between atoms: _551  and  _553
REMARK  233  A    between atoms: _553  and  _554
REMARK  234  A    between atoms: _553  and  _556
REMARK  235  A    between atoms: _556  and  _557
REMARK  236  A    between atoms: _560  and  _562
REMARK  237  A    between atoms: _562  and  _563
REMARK  238  A    between atoms: _562  and  _565
REMARK  239  A    between atoms: _565  and  _566
REMARK  240  A    between atoms: _566  and  _567
REMARK  241  A    between atoms: _567  and  _568
REMARK  242  A    between atoms: _568  and  _569
REMARK  243  A    between atoms: _573  and  _575
REMARK  244  A    between atoms: _575  and  _576
REMARK  245  A    between atoms: _575  and  _578
REMARK                            x       y       z     vdW  Elec       q    Type
REMARK                         _______ _______ _______ _____ _____    ______ ____
ROOT
ATOM      1  C   THR A   4      -8.957  35.421  20.916  0.00  0.00    +0.243 C 
ATOM      2  N   GLY A   5      -7.734  35.564  21.414  0.00  0.00    -0.295 N 
ATOM      3  H   GLY A   5      -7.346  34.820  22.028  0.00  0.00    +0.150 HD
ATOM      4  O   THR A   4      -9.502  36.262  20.199  0.00  0.00    -0.273 OA
ENDROOT
BRANCH   2   5
ATOM      5  CA  GLY A   5      -6.927  36.731  21.123  0.00  0.00    +0.176 C 
BRANCH   5   6
ATOM      6  C   GLY A   5      -6.311  36.660  19.740  0.00  0.00    +0.243 C 
ATOM      7  N   ILE A   6      -5.327  37.515  19.507  0.00  0.00    -0.297 N 
ATOM      8  H   ILE A   6      -5.021  38.149  20.272  0.00  0.00    +0.150 HD
ATOM      9  O   GLY A   5      -6.701  35.834  18.909  0.00  0.00    -0.273 OA
BRANCH   7  10
ATOM     10  CA  ILE A   6      -4.661  37.597  18.218  0.00  0.00    +0.149 C 
BRANCH  10  11
ATOM     11  C   ILE A   6      -3.911  36.342  17.781  0.00  0.00    +0.241 C 
ATOM     12  N   GLY A   7      -3.494  35.515  18.735  0.00  0.00    -0.295 N 
ATOM     13  H   GLY A   7      -3.681  35.731  19.735  0.00  0.00    +0.150 HD
ATOM     14  O   ILE A   6      -3.713  36.122  16.588  0.00  0.00    -0.273 OA
BRANCH  12  15
ATOM     15  CA  GLY A   7      -2.777  34.310  18.370  0.00  0.00    +0.176 C 
BRANCH  15  16
ATOM     16  C   GLY A   7      -1.321  34.583  18.048  0.00  0.00    +0.243 C 
ATOM     17  O   GLY A   7      -0.895  35.738  17.968  0.00  0.00    -0.273 OA
ATOM     18  N   MET A   8      -0.552  33.516  17.852  0.00  0.00    -0.297 N 
ATOM     19  H   MET A   8      -0.975  32.567  17.908  0.00  0.00    +0.150 HD
BRANCH  18  20
ATOM     20  CA  MET A   8       0.868  33.646  17.561  0.00  0.00    +0.149 C 
BRANCH  20  21
ATOM     21  C   MET A   8       1.254  33.049  16.218  0.00  0.00    +0.241 C 
ATOM     22  O   MET A   8       0.746  31.999  15.833  0.00  0.00    -0.273 OA
ATOM     23  N   THR A   9       2.158  33.721  15.510  0.00  0.00    -0.296 N 
ATOM     24  H   THR A   9       2.537  34.615  15.884  0.00  0.00    +0.150 HD
BRANCH  23  25
ATOM     25  CA  THR A   9       2.629  33.229  14.219  0.00  0.00    +0.164 C 
BRANCH  25  26
ATOM     26  CB  THR A   9       3.193  34.368  13.345  0.00  0.00    +0.136 C 
ATOM     27  CG2 THR A   9       2.114  35.392  13.030  0.00  0.00    +0.034 C 
BRANCH  26  28
ATOM     28  OG1 THR A   9       4.269  35.008  14.042  0.00  0.00    -0.382 OA
ATOM     29  HG1 THR A   9       4.633  35.740  13.484  0.00  0.00    +0.210 HD
ENDBRANCH  26  28
ENDBRANCH  25  26
BRANCH  25  30
ATOM     30  C   THR A   9       3.761  32.237  14.470  0.00  0.00    +0.229 C 
ATOM     31  O   THR A   9       4.267  32.121  15.586  0.00  0.00    -0.286 OA
ENDBRANCH  25  30
ENDBRANCH  23  25
ENDBRANCH  20  21
BRANCH  20  32
ATOM     32  CB  MET A   8       1.678  32.955  18.656  0.00  0.00    +0.041 C 
BRANCH  32  33
ATOM     33  CG  MET A   8       1.497  33.558  20.033  0.00  0.00    +0.060 C 
BRANCH  33  34
ATOM     34  SD  MET A   8       2.353  32.595  21.277  0.00  0.00    -0.139 S 
ATOM     35  CE  MET A   8       1.198  31.342  21.560  0.00  0.00    +0.069 C 
ENDBRANCH  33  34
ENDBRANCH  32  33
ENDBRANCH  20  32
ENDBRANCH  18  20
ENDBRANCH  15  16
ENDBRANCH  12  15
ENDBRANCH  10  11
BRANCH  10  36
ATOM     36  CB  ILE A   6      -3.707  38.816  18.186  0.00  0.00    +0.027 C 
ATOM     37  CG2 ILE A   6      -2.514  38.590  19.123  0.00  0.00    +0.002 C 
BRANCH  36  38
ATOM     38  CG1 ILE A   6      -3.247  39.074  16.752  0.00  0.00    +0.002 C 
ATOM     39  CD1 ILE A   6      -2.775  40.490  16.525  0.00  0.00    +0.000 C 
ENDBRANCH  36  38
ENDBRANCH  10  36
ENDBRANCH   7  10
ENDBRANCH   5   6
ENDBRANCH   2   5
BRANCH   1  40
ATOM     40  CA  THR A   4      -9.658  34.125  21.310  0.00  0.00    +0.176 C 
BRANCH  40  42
ATOM     41  C   ASP A   3      -8.580  32.931  23.118  0.00  0.00    +0.241 C 
ATOM     42  N   THR A   4      -9.392  33.900  22.720  0.00  0.00    -0.295 N 
ATOM     43  H   THR A   4      -9.846  34.510  23.429  0.00  0.00    +0.150 HD
ATOM     44  O   ASP A   3      -8.058  32.127  22.336  0.00  0.00    -0.273 OA
BRANCH  41  45
ATOM     45  CA  ASP A   3      -8.354  32.826  24.619  0.00  0.00    +0.160 C 
BRANCH  45  48
ATOM     46  C   VAL A   2      -8.451  30.834  25.975  0.00  0.00    +0.241 C 
ATOM     47  O   VAL A   2      -9.276  31.348  26.724  0.00  0.00    -0.273 OA
ATOM     48  N   ASP A   3      -7.913  31.482  24.947  0.00  0.00    -0.297 N 
ATOM     49  H   ASP A   3      -7.174  31.025  24.376  0.00  0.00    +0.150 HD
BRANCH  46  50
ATOM     50  CA  VAL A   2      -7.996  29.402  26.200  0.00  0.00    +0.148 C 
BRANCH  50  52
ATOM     51  C   ILE A   1      -6.395  28.849  27.957  0.00  0.00    +0.238 C 
ATOM     52  N   VAL A   2      -7.636  29.138  27.584  0.00  0.00    -0.297 N 
ATOM     53  H   VAL A   2      -8.380  29.177  28.310  0.00  0.00    +0.150 HD
ATOM     54  O   ILE A   1      -5.446  28.768  27.165  0.00  0.00    -0.274 OA
BRANCH  51  55
ATOM     55  CA  ILE A   1      -6.201  28.561  29.444  0.00  0.00    +0.145 C 
BRANCH  55  56
ATOM     56  N   ILE A   1      -5.792  27.162  29.474  0.00  0.00    -0.238 NA
ATOM     57  H   ILE A   1      -4.844  26.911  29.127  0.00  0.00    +0.142 HD
ENDBRANCH  55  56
BRANCH  55  58
ATOM     58  CB  ILE A   1      -5.117  29.496  30.045  0.00  0.00    +0.025 C 
ATOM     59  CG2 ILE A   1      -5.498  30.963  29.838  0.00  0.00    +0.002 C 
BRANCH  58  60
ATOM     60  CG1 ILE A   1      -4.975  29.239  31.547  0.00  0.00    +0.002 C 
ATOM     61  CD1 ILE A   1      -4.269  27.956  31.895  0.00  0.00    +0.000 C 
ENDBRANCH  58  60
ENDBRANCH  55  58
ENDBRANCH  51  55
ENDBRANCH  50  52
BRANCH  50  62
ATOM     62  CB  VAL A   2      -9.168  28.497  25.752  0.00  0.00    +0.027 C 
ATOM     63  CG2 VAL A   2      -8.838  27.042  25.989  0.00  0.00    +0.002 C 
ATOM     64  CG1 VAL A   2      -9.492  28.754  24.293  0.00  0.00    +0.002 C 
ENDBRANCH  50  62
ENDBRANCH  46  50
ENDBRANCH  45  48
BRANCH  45  65
ATOM     65  CB  ASP A   3      -7.348  33.895  25.098  0.00  0.00    +0.143 C 
BRANCH  65  66
ATOM     66  CG  ASP A   3      -6.040  33.891  24.315  0.00  0.00    +0.367 C 
ATOM     67  OD2 ASP A   3      -4.989  33.577  24.914  0.00  0.00    -0.246 OA
ATOM     68  OD1 ASP A   3      -6.054  34.213  23.107  0.00  0.00    -0.246 OA
ENDBRANCH  65  66
ENDBRANCH  45  65
ENDBRANCH  41  45
ENDBRANCH  40  42
BRANCH  40  69
ATOM     69  CB  THR A   4     -11.170  34.217  21.029  0.00  0.00    +0.137 C 
ATOM     70  CG2 THR A   4     -11.812  32.844  21.168  0.00  0.00    +0.034 C 
BRANCH  69  71
ATOM     71  OG1 THR A   4     -11.783  35.120  21.958  0.00  0.00    -0.382 OA
ATOM     72  HG1 THR A   4     -12.754  35.174  21.772  0.00  0.00    +0.210 HD
ENDBRANCH  69  71
ENDBRANCH  40  69
ENDBRANCH   1  40
TORSDOF 32
REMARK  Name = ../refined-set-2016/2qg2/2qg2_pocket.pdb
REMARK  245 active torsions:
REMARK  status: ('A' for Active; 'I' for Inactive)
REMARK    1  A    between atoms: _1  and  _3
REMARK    2  A    between atoms: _3  and  _4
REMARK    3  A    between atoms: _3  and  _6
REMARK    4  A    between atoms: _6  and  _7
REMARK    5  A    between atoms: _13  and  _15
REMARK    6  A    between atoms: _15  and  _16
REMARK    7  A    between atoms: _15  and  _18
REMARK    8  A    between atoms: _18  and  _19
REMARK    9  A    between atoms: _22  and  _24
REMARK   10  A    between atoms: _24  and  _25
REMARK   11  A    between atoms: _24  and  _27
REMARK   12  A    between atoms: _27  and  _28
REMARK   13  A    between atoms: _31  and  _33
REMARK   14  A    between atoms: _33  and  _34
REMARK   15  A    between atoms: _33  and  _36
REMARK   16  A    between atoms: _36  and  _37
REMARK   17  A    between atoms: _37  and  _38
REMARK   18  A    between atoms: _41  and  _43
REMARK   19  A    between atoms: _43  and  _44
REMARK   20  A    between atoms: _43  and  _46
REMARK   21  A    between atoms: _46  and  _47
REMARK   22  A    between atoms: _50  and  _52
REMARK   23  A    between atoms: _52  and  _53
REMARK   24  A    between atoms: _52  and  _55
REMARK   25  A    between atoms: _55  and  _56
REMARK   26  A    between atoms: _59  and  _61
REMARK   27  A    between atoms: _61  and  _62
REMARK   28  A    between atoms: _61  and  _64
REMARK   29  A    between atoms: _64  and  _65
REMARK   30  A    between atoms: _67  and  _69
REMARK   31  A    between atoms: _69  and  _70
REMARK   32  A    between atoms: _69  and  _72
REMARK   33  A    between atoms: _72  and  _73
REMARK   34  A    between atoms: _78  and  _80
REMARK   35  A    between atoms: _80  and  _81
REMARK   36  A    between atoms: _80  and  _83
REMARK   37  A    between atoms: _83  and  _84
REMARK   38  A    between atoms: _86  and  _88
REMARK   39  A    between atoms: _88  and  _89
REMARK   40  A    between atoms: _88  and  _91
REMARK   41  A    between atoms: _91  and  _92
REMARK   42  A    between atoms: _94  and  _96
REMARK   43  A    between atoms: _96  and  _97
REMARK   44  A    between atoms: _96  and  _99
REMARK   45  A    between atoms: _99  and  _100
REMARK   46  A    between atoms: _103  and  _105
REMARK   47  A    between atoms: _105  and  _106
REMARK   48  A    between atoms: _109  and  _111
REMARK   49  A    between atoms: _111  and  _112
REMARK   50  A    between atoms: _111  and  _114
REMARK   51  A    between atoms: _114  and  _115
REMARK   52  A    between atoms: _118  and  _120
REMARK   53  A    between atoms: _120  and  _121
REMARK   54  A    between atoms: _120  and  _123
REMARK   55  A    between atoms: _123  and  _124
REMARK   56  A    between atoms: _124  and  _125
REMARK   57  A    between atoms: _125  and  _126
REMARK   58  A    between atoms: _126  and  _127
REMARK   59  A    between atoms: _131  and  _133
REMARK   60  A    between atoms: _133  and  _134
REMARK   61  A    between atoms: _133  and  _136
REMARK   62  A    between atoms: _136  and  _137
REMARK   63  A    between atoms: _140  and  _142
REMARK   64  A    between atoms: _142  and  _143
REMARK   65  A    between atoms: _142  and  _145
REMARK   66  A    between atoms: _145  and  _146
REMARK   67  A    between atoms: _149  and  _151
REMARK   68  A    between atoms: _151  and  _152
REMARK   69  A    between atoms: _151  and  _154
REMARK   70  A    between atoms: _157  and  _159
REMARK   71  A    between atoms: _159  and  _160
REMARK   72  A    between atoms: _159  and  _162
REMARK   73  A    between atoms: _162  and  _163
REMARK   74  A    between atoms: _166  and  _168
REMARK   75  A    between atoms: _168  and  _169
REMARK   76  A    between atoms: _168  and  _171
REMARK   77  A    between atoms: _171  and  _172
REMARK   78  A    between atoms: _175  and  _177
REMARK   79  A    between atoms: _177  and  _178
REMARK   80  A    between atoms: _180  and  _182
REMARK   81  A    between atoms: _182  and  _183
REMARK   82  A    between atoms: _182  and  _185
REMARK   83  A    between atoms: _185  and  _186
REMARK   84  A    between atoms: _189  and  _191
REMARK   85  A    between atoms: _191  and  _192
REMARK   86  A    between atoms: _194  and  _196
REMARK   87  A    between atoms: _196  and  _197
REMARK   88  A    between atoms: _196  and  _199
REMARK   89  A    between atoms: _199  and  _200
REMARK   90  A    between atoms: _200  and  _201
REMARK   91  A    between atoms: _203  and  _205
REMARK   92  A    between atoms: _205  and  _206
REMARK   93  A    between atoms: _205  and  _208
REMARK   94  A    between atoms: _208  and  _209
REMARK   95  A    between atoms: _212  and  _214
REMARK   96  A    between atoms: _214  and  _215
REMARK   97  A    between atoms: _218  and  _220
REMARK   98  A    between atoms: _220  and  _221
REMARK   99  A    between atoms: _220  and  _223
REMARK  100  A    between atoms: _223  and  _224
REMARK  101  A    between atoms: _227  and  _229
REMARK  102  A    between atoms: _229  and  _230
REMARK  103  A    between atoms: _229  and  _232
REMARK  104  A    between atoms: _232  and  _233
REMARK  105  A    between atoms: _236  and  _238
REMARK  106  A    between atoms: _238  and  _239
REMARK  107  A    between atoms: _238  and  _241
REMARK  108  A    between atoms: _241  and  _242
REMARK  109  A    between atoms: _245  and  _247
REMARK  110  A    between atoms: _247  and  _248
REMARK  111  A    between atoms: _247  and  _250
REMARK  112  A    between atoms: _250  and  _251
REMARK  113  A    between atoms: _256  and  _258
REMARK  114  A    between atoms: _258  and  _259
REMARK  115  A    between atoms: _258  and  _261
REMARK  116  A    between atoms: _261  and  _262
REMARK  117  A    between atoms: _267  and  _269
REMARK  118  A    between atoms: _269  and  _270
REMARK  119  A    between atoms: _269  and  _272
REMARK  120  A    between atoms: _272  and  _273
REMARK  121  A    between atoms: _276  and  _278
REMARK  122  A    between atoms: _278  and  _279
REMARK  123  A    between atoms: _281  and  _283
REMARK  124  A    between atoms: _283  and  _284
REMARK  125  A    between atoms: _283  and  _286
REMARK  126  A    between atoms: _286  and  _287
REMARK  127  A    between atoms: _290  and  _292
REMARK  128  A    between atoms: _292  and  _293
REMARK  129  A    between atoms: _292  and  _295
REMARK  130  A    between atoms: _295  and  _296
REMARK  131  A    between atoms: _299  and  _301
REMARK  132  A    between atoms: _301  and  _302
REMARK  133  A    between atoms: _305  and  _307
REMARK  134  A    between atoms: _307  and  _308
REMARK  135  A    between atoms: _307  and  _310
REMARK  136  A    between atoms: _310  and  _311
REMARK  137  A    between atoms: _311  and  _312
REMARK  138  A    between atoms: _312  and  _313
REMARK  139  A    between atoms: _313  and  _314
REMARK  140  A    between atoms: _318  and  _320
REMARK  141  A    between atoms: _320  and  _321
REMARK  142  A    between atoms: _323  and  _325
REMARK  143  A    between atoms: _325  and  _326
REMARK  144  A    between atoms: _325  and  _328
REMARK  145  A    between atoms: _328  and  _329
REMARK  146  A    between atoms: _332  and  _334
REMARK  147  A    between atoms: _334  and  _335
REMARK  148  A    between atoms: _334  and  _337
REMARK  149  A    between atoms: _337  and  _338
REMARK  150  A    between atoms: _344  and  _346
REMARK  151  A    between atoms: _346  and  _347
REMARK  152  A    between atoms: _349  and  _351
REMARK  153  A    between atoms: _351  and  _352
REMARK  154  A    between atoms: _351  and  _354
REMARK  155  A    between atoms: _357  and  _359
REMARK  156  A    between atoms: _359  and  _360
REMARK  157  A    between atoms: _362  and  _364
REMARK  158  A    between atoms: _364  and  _365
REMARK  159  A    between atoms: _364  and  _367
REMARK  160  A    between atoms: _367  and  _368
REMARK  161  A    between atoms: _374  and  _376
REMARK  162  A    between atoms: _376  and  _377
REMARK  163  A    between atoms: _376  and  _379
REMARK  164  A    between atoms: _379  and  _380
REMARK  165  A    between atoms: _385  and  _386
REMARK  166  A    between atoms: _388  and  _390
REMARK  167  A    between atoms: _390  and  _391
REMARK  168  A    between atoms: _390  and  _393
REMARK  169  A    between atoms: _393  and  _394
REMARK  170  A    between atoms: _396  and  _398
REMARK  171  A    between atoms: _398  and  _399
REMARK  172  A    between atoms: _398  and  _401
REMARK  173  A    between atoms: _401  and  _402
REMARK  174  A    between atoms: _407  and  _408
REMARK  175  A    between atoms: _410  and  _412
REMARK  176  A    between atoms: _412  and  _413
REMARK  177  A    between atoms: _412  and  _415
REMARK  178  A    between atoms: _418  and  _420
REMARK  179  A    between atoms: _420  and  _421
REMARK  180  A    between atoms: _420  and  _423
REMARK  181  A    between atoms: _423  and  _424
REMARK  182  A    between atoms: _427  and  _429
REMARK  183  A    between atoms: _429  and  _430
REMARK  184  A    between atoms: _429  and  _432
REMARK  185  A    between atoms: _435  and  _437
REMARK  186  A    between atoms: _437  and  _438
REMARK  187  A    between atoms: _437  and  _440
REMARK  188  A    between atoms: _440  and  _441
REMARK  189  A    between atoms: _444  and  _446
REMARK  190  A    between atoms: _446  and  _447
REMARK  191  A    between atoms: _446  and  _449
REMARK  192  A    between atoms: _449  and  _450
REMARK  193  A    between atoms: _453  and  _455
REMARK  194  A    between atoms: _455  and  _456
REMARK  195  A    between atoms: _455  and  _458
REMARK  196  A    between atoms: _458  and  _459
REMARK  197  A    between atoms: _459  and  _460
REMARK  198  A    between atoms: _460  and  _461
REMARK  199  A    between atoms: _461  and  _462
REMARK  200  A    between atoms: _466  and  _468
REMARK  201  A    between atoms: _468  and  _469
REMARK  202  A    between atoms: _468  and  _471
REMARK  203  A    between atoms: _471  and  _472
REMARK  204  A    between atoms: _477  and  _479
REMARK  205  A    between atoms: _479  and  _480
REMARK  206  A    between atoms: _483  and  _485
REMARK  207  A    between atoms: _485  and  _486
REMARK  208  A    between atoms: _485  and  _488
REMARK  209  A    between atoms: _488  and  _489
REMARK  210  A    between atoms: _499  and  _501
REMARK  211  A    between atoms: _501  and  _502
REMARK  212  A    between atoms: _501  and  _504
REMARK  213  A    between atoms: _504  and  _505
REMARK  214  A    between atoms: _505  and  _506
REMARK  215  A    between atoms: _509  and  _511
REMARK  216  A    between atoms: _511  and  _512
REMARK  217  A    between atoms: _511  and  _514
REMARK  218  A    between atoms: _514  and  _515
REMARK  219  A    between atoms: _517  and  _519
REMARK  220  A    between atoms: _519  and  _520
REMARK  221  A    between atoms: _519  and  _522
REMARK  222  A    between atoms: _522  and  _523
REMARK  223  A    between atoms: _529  and  _531
REMARK  224  A    between atoms: _531  and  _532
REMARK  225  A    between atoms: _531  and  _534
REMARK  226  A    between atoms: _534  and  _535
REMARK  227  A    between atoms: _538  and  _540
REMARK  228  A    between atoms: _540  and  _541
REMARK  229  A    between atoms: _540  and  _543
REMARK  230  A    between atoms: _546  and  _548
REMARK  231  A    between atoms: _548  and  _549
REMARK  232  A    between atoms: _551  and  _553
REMARK  233  A    between atoms: _553  and  _554
REMARK  234  A    between atoms: _553  and  _556
REMARK  235  A    between atoms: _556  and  _557
REMARK  236  A    between atoms: _560  and  _562
REMARK  237  A    between atoms: _562  and  _563
REMARK  238  A    between atoms: _562  and  _565
REMARK  239  A    between atoms: _565  and  _566
REMARK  240  A    between atoms: _566  and  _567
REMARK  241  A    between atoms: _567  and  _568
REMARK  242  A    between atoms: _568  and  _569
REMARK  243  A    between atoms: _573  and  _575
REMARK  244  A    between atoms: _575  and  _576
REMARK  245  A    between atoms: _575  and  _578
REMARK                            x       y       z     vdW  Elec       q    Type
REMARK                         _______ _______ _______ _____ _____    ______ ____
ROOT
ATOM      1  CA  ASN A   6       9.996  36.915  18.136  0.00  0.00    +0.158 C 
ENDROOT
BRANCH   1   2
ATOM      2  C   ASN A   6       9.825  36.945  19.647  0.00  0.00    +0.241 C 
ATOM      3  O   ASN A   6      10.332  37.848  20.315  0.00  0.00    -0.273 OA
ATOM      4  N   LEU A   7       9.092  35.979  20.185  0.00  0.00    -0.297 N 
ATOM      5  H   LEU A   7       8.683  35.243  19.574  0.00  0.00    +0.150 HD
BRANCH   4   6
ATOM      6  CA  LEU A   7       8.852  35.936  21.623  0.00  0.00    +0.149 C 
BRANCH   6   7
ATOM      7  C   LEU A   7      10.133  35.730  22.421  0.00  0.00    +0.241 C 
ATOM      8  O   LEU A   7      10.331  36.362  23.457  0.00  0.00    -0.273 OA
ATOM      9  N   GLY A   8      11.000  34.849  21.936  0.00  0.00    -0.295 N 
ATOM     10  H   GLY A   8      10.782  34.338  21.057  0.00  0.00    +0.150 HD
BRANCH   9  11
ATOM     11  CA  GLY A   8      12.251  34.597  22.629  0.00  0.00    +0.176 C 
BRANCH  11  12
ATOM     12  C   GLY A   8      13.154  35.816  22.592  0.00  0.00    +0.243 C 
ATOM     13  O   GLY A   8      13.869  36.108  23.554  0.00  0.00    -0.273 OA
ATOM     14  N   THR A   9      13.123  36.533  21.475  0.00  0.00    -0.295 N 
ATOM     15  H   THR A   9      12.504  36.234  20.694  0.00  0.00    +0.150 HD
BRANCH  14  16
ATOM     16  CA  THR A   9      13.937  37.727  21.322  0.00  0.00    +0.176 C 
BRANCH  16  17
ATOM     17  C   THR A   9      13.545  38.769  22.358  0.00  0.00    +0.243 C 
ATOM     18  O   THR A   9      14.401  39.333  23.040  0.00  0.00    -0.273 OA
ATOM     19  N   ILE A  10      12.247  39.012  22.490  0.00  0.00    -0.297 N 
ATOM     20  H   ILE A  10      11.565  38.490  21.903  0.00  0.00    +0.150 HD
BRANCH  19  21
ATOM     21  CA  ILE A  10      11.766  39.998  23.444  0.00  0.00    +0.149 C 
BRANCH  21  22
ATOM     22  C   ILE A  10      11.994  39.551  24.883  0.00  0.00    +0.241 C 
ATOM     23  O   ILE A  10      12.326  40.366  25.742  0.00  0.00    -0.273 OA
ATOM     24  N   ALA A  11      11.833  38.256  25.139  0.00  0.00    -0.297 N 
ATOM     25  H   ALA A  11      11.577  37.615  24.361  0.00  0.00    +0.150 HD
BRANCH  24  26
ATOM     26  CA  ALA A  11      12.005  37.708  26.481  0.00  0.00    +0.149 C 
ATOM     27  CB  ALA A  11      11.516  36.269  26.515  0.00  0.00    +0.031 C 
BRANCH  26  28
ATOM     28  C   ALA A  11      13.441  37.772  26.990  0.00  0.00    +0.241 C 
ATOM     29  O   ALA A  11      13.683  37.708  28.197  0.00  0.00    -0.273 OA
ATOM     30  N   LYS A  12      14.391  37.898  26.072  0.00  0.00    -0.298 N 
ATOM     31  H   LYS A  12      14.125  37.962  25.069  0.00  0.00    +0.150 HD
BRANCH  30  32
ATOM     32  CA  LYS A  12      15.799  37.948  26.442  0.00  0.00    +0.137 C 
BRANCH  32  33
ATOM     33  C   LYS A  12      16.121  39.123  27.363  0.00  0.00    +0.227 C 
ATOM     34  O   LYS A  12      16.745  38.948  28.414  0.00  0.00    -0.286 OA
ENDBRANCH  32  33
BRANCH  32  35
ATOM     35  CB  LYS A  12      16.661  38.019  25.182  0.00  0.00    +0.028 C 
BRANCH  35  36
ATOM     36  CG  LYS A  12      18.123  37.691  25.409  0.00  0.00    -0.000 C 
BRANCH  36  37
ATOM     37  CD  LYS A  12      18.895  37.711  24.097  0.00  0.00    -0.024 C 
BRANCH  37  38
ATOM     38  CE  LYS A  12      20.330  37.260  24.302  0.00  0.00    -0.086 C 
BRANCH  38  39
ATOM     39  NZ  LYS A  12      21.021  38.070  25.344  0.00  0.00    +0.380 N 
ATOM     40  HZ1 LYS A  12      20.516  37.974  26.248  0.00  0.00    -0.089 HD
ATOM     41  HZ2 LYS A  12      21.998  37.731  25.454  0.00  0.00    -0.089 HD
ATOM     42  HZ3 LYS A  12      21.030  39.069  25.055  0.00  0.00    -0.089 HD
ENDBRANCH  38  39
ENDBRANCH  37  38
ENDBRANCH  36  37
ENDBRANCH  35  36
ENDBRANCH  32  35
ENDBRANCH  30  32
ENDBRANCH  26  28
ENDBRANCH  24  26
ENDBRANCH  21  22
BRANCH  21  43
ATOM     43  CB  ILE A  10      10.263  40.289  23.249  0.00  0.00    +0.027 C 
ATOM     44  CG2 ILE A  10       9.432  39.088  23.678  0.00  0.00    +0.002 C 
BRANCH  43  45
ATOM     45  CG1 ILE A  10       9.860  41.504  24.084  0.00  0.00    +0.002 C 
ATOM     46  CD1 ILE A  10       8.382  41.815  24.026  0.00  0.00    +0.000 C 
ENDBRANCH  43  45
ENDBRANCH  21  43
ENDBRANCH  19  21
ENDBRANCH  16  17
BRANCH  16  47
ATOM     47  CB  THR A   9      13.776  38.341  19.915  0.00  0.00    +0.137 C 
ATOM     48  CG2 THR A   9      14.501  39.675  19.832  0.00  0.00    +0.034 C 
BRANCH  47  49
ATOM     49  OG1 THR A   9      14.320  37.447  18.937  0.00  0.00    -0.382 OA
ATOM     50  HG1 THR A   9      13.838  36.583  18.977  0.00  0.00    +0.210 HD
ENDBRANCH  47  49
ENDBRANCH  16  47
ENDBRANCH  14  16
ENDBRANCH  11  12
ENDBRANCH   9  11
ENDBRANCH   6   7
BRANCH   6  51
ATOM     51  CB  LEU A   7       7.836  34.841  21.952  0.00  0.00    +0.029 C 
BRANCH  51  52
ATOM     52  CG  LEU A   7       6.366  35.236  21.774  0.00  0.00    +0.002 C 
ATOM     53  CD2 LEU A   7       5.539  33.991  21.507  0.00  0.00    +0.000 C 
ATOM     54  CD1 LEU A   7       6.223  36.243  20.649  0.00  0.00    +0.000 C 
ENDBRANCH  51  52
ENDBRANCH   6  51
ENDBRANCH   4   6
ENDBRANCH   1   2
BRANCH   1  57
ATOM     55  C   ASN A   5      11.617  35.095  17.963  0.00  0.00    +0.241 C 
ATOM     56  O   ASN A   5      12.269  35.528  18.912  0.00  0.00    -0.273 OA
ATOM     57  N   ASN A   6      10.498  35.678  17.533  0.00  0.00    -0.297 N 
ATOM     58  H   ASN A   6       9.968  35.244  16.750  0.00  0.00    +0.150 HD
BRANCH  55  59
ATOM     59  CA  ASN A   5      12.096  33.846  17.211  0.00  0.00    +0.158 C 
BRANCH  59  62
ATOM     60  C   ILE A   4      11.520  31.491  17.302  0.00  0.00    +0.241 C 
ATOM     61  O   ILE A   4      12.573  31.218  17.881  0.00  0.00    -0.273 OA
ATOM     62  N   ASN A   5      11.180  32.735  16.972  0.00  0.00    -0.297 N 
ATOM     63  H   ASN A   5      10.252  32.917  16.539  0.00  0.00    +0.150 HD
BRANCH  60  64
ATOM     64  CA  ILE A   4      10.532  30.386  16.953  0.00  0.00    +0.149 C 
BRANCH  64  67
ATOM     65  C   LEU A   3       8.530  30.522  18.303  0.00  0.00    +0.241 C 
ATOM     66  O   LEU A   3       9.128  30.102  19.292  0.00  0.00    -0.273 OA
ATOM     67  N   ILE A   4       9.125  30.705  17.134  0.00  0.00    -0.297 N 
ATOM     68  H   ILE A   4       8.578  31.082  16.334  0.00  0.00    +0.150 HD
BRANCH  65  69
ATOM     69  CA  LEU A   3       7.044  30.850  18.368  0.00  0.00    +0.149 C 
BRANCH  69  72
ATOM     70  C   ASP A   2       7.123  33.269  17.994  0.00  0.00    +0.241 C 
ATOM     71  O   ASP A   2       7.940  33.455  18.898  0.00  0.00    -0.273 OA
ATOM     72  N   LEU A   3       6.654  32.069  17.665  0.00  0.00    -0.297 N 
ATOM     73  H   LEU A   3       5.982  31.996  16.875  0.00  0.00    +0.150 HD
BRANCH  70  74
ATOM     74  CA  ASP A   2       6.583  34.431  17.171  0.00  0.00    +0.160 C 
BRANCH  74  76
ATOM     75  C   ALA A   1       7.801  33.857  15.153  0.00  0.00    +0.238 C 
ATOM     76  N   ASP A   2       6.636  34.062  15.762  0.00  0.00    -0.297 N 
ATOM     77  H   ASP A   2       5.751  33.958  15.225  0.00  0.00    +0.150 HD
ATOM     78  O   ALA A   1       8.885  33.999  15.720  0.00  0.00    -0.274 OA
BRANCH  75  79
ATOM     79  CA  ALA A   1       7.747  33.447  13.683  0.00  0.00    +0.145 C 
ATOM     80  CB  ALA A   1       7.667  34.684  12.792  0.00  0.00    +0.028 C 
BRANCH  79  81
ATOM     81  N   ALA A   1       6.615  32.571  13.420  0.00  0.00    -0.238 NA
ATOM     82  H   ALA A   1       5.871  32.889  12.766  0.00  0.00    +0.142 HD
ENDBRANCH  79  81
ENDBRANCH  75  79
ENDBRANCH  74  76
BRANCH  74  83
ATOM     83  CB  ASP A   2       5.145  34.704  17.635  0.00  0.00    +0.143 C 
BRANCH  83  84
ATOM     84  CG  ASP A   2       4.591  36.022  17.127  0.00  0.00    +0.367 C 
ATOM     85  OD2 ASP A   2       5.354  37.006  17.049  0.00  0.00    -0.246 OA
ATOM     86  OD1 ASP A   2       3.378  36.075  16.826  0.00  0.00    -0.246 OA
ENDBRANCH  83  84
ENDBRANCH  74  83
ENDBRANCH  70  74
ENDBRANCH  69  72
BRANCH  69  87
ATOM     87  CB  LEU A   3       6.255  29.657  17.811  0.00  0.00    +0.029 C 
BRANCH  87  88
ATOM     88  CG  LEU A   3       4.735  29.669  17.981  0.00  0.00    +0.002 C 
ATOM     89  CD2 LEU A   3       4.386  29.643  19.464  0.00  0.00    +0.000 C 
ATOM     90  CD1 LEU A   3       4.132  28.460  17.267  0.00  0.00    +0.000 C 
ENDBRANCH  87  88
ENDBRANCH  69  87
ENDBRANCH  65  69
ENDBRANCH  64  67
BRANCH  64  91
ATOM     91  CB  ILE A   4      10.800  29.951  15.504  0.00  0.00    +0.027 C 
ATOM     92  CG2 ILE A   4      12.289  29.718  15.297  0.00  0.00    +0.002 C 
BRANCH  91  93
ATOM     93  CG1 ILE A   4       9.994  28.689  15.188  0.00  0.00    +0.002 C 
ATOM     94  CD1 ILE A   4      10.136  28.221  13.755  0.00  0.00    +0.000 C 
ENDBRANCH  91  93
ENDBRANCH  64  91
ENDBRANCH  60  64
ENDBRANCH  59  62
BRANCH  59  95
ATOM     95  CB  ASN A   5      12.682  34.293  15.868  0.00  0.00    +0.114 C 
BRANCH  95  96
ATOM     96  CG  ASN A   5      13.630  33.267  15.269  0.00  0.00    +0.222 C 
ATOM     97  ND2 ASN A   5      14.435  32.632  16.119  0.00  0.00    -0.329 N 
ATOM     98 HD21 ASN A   5      14.384  32.839  17.137  0.00  0.00    +0.145 HD
ATOM     99 HD22 ASN A   5      15.115  31.929  15.765  0.00  0.00    +0.145 HD
ATOM    100  OD1 ASN A   5      13.650  33.059  14.054  0.00  0.00    -0.275 OA
ENDBRANCH  95  96
ENDBRANCH  59  95
ENDBRANCH  55  59
ENDBRANCH   1  57
BRANCH   1 101
ATOM    101  CB  ASN A   6       8.665  37.330  17.499  0.00  0.00    +0.114 C 
BRANCH 101 102
ATOM    102  CG  ASN A   6       8.758  37.497  15.998  0.00  0.00    +0.222 C 
ATOM    103  OD1 ASN A   6       9.824  37.802  15.456  0.00  0.00    -0.275 OA
ATOM    104  ND2 ASN A   6       7.630  37.313  15.316  0.00  0.00    -0.329 N 
ATOM    105 HD21 ASN A   6       6.755  37.057  15.817  0.00  0.00    +0.145 HD
ATOM    106 HD22 ASN A   6       7.623  37.426  14.282  0.00  0.00    +0.145 HD
ENDBRANCH 101 102
ENDBRANCH   1 101
TORSDOF 45
REMARK  Name = ../refined-set-2016/2qg2/2qg2_pocket.pdb
REMARK  245 active torsions:
REMARK  status: ('A' for Active; 'I' for Inactive)
REMARK    1  A    between atoms: _1  and  _3
REMARK    2  A    between atoms: _3  and  _4
REMARK    3  A    between atoms: _3  and  _6
REMARK    4  A    between atoms: _6  and  _7
REMARK    5  A    between atoms: _13  and  _15
REMARK    6  A    between atoms: _15  and  _16
REMARK    7  A    between atoms: _15  and  _18
REMARK    8  A    between atoms: _18  and  _19
REMARK    9  A    between atoms: _22  and  _24
REMARK   10  A    between atoms: _24  and  _25
REMARK   11  A    between atoms: _24  and  _27
REMARK   12  A    between atoms: _27  and  _28
REMARK   13  A    between atoms: _31  and  _33
REMARK   14  A    between atoms: _33  and  _34
REMARK   15  A    between atoms: _33  and  _36
REMARK   16  A    between atoms: _36  and  _37
REMARK   17  A    between atoms: _37  and  _38
REMARK   18  A    between atoms: _41  and  _43
REMARK   19  A    between atoms: _43  and  _44
REMARK   20  A    between atoms: _43  and  _46
REMARK   21  A    between atoms: _46  and  _47
REMARK   22  A    between atoms: _50  and  _52
REMARK   23  A    between atoms: _52  and  _53
REMARK   24  A    between atoms: _52  and  _55
REMARK   25  A    between atoms: _55  and  _56
REMARK   26  A    between atoms: _59  and  _61
REMARK   27  A    between atoms: _61  and  _62
REMARK   28  A    between atoms: _61  and  _64
REMARK   29  A    between atoms: _64  and  _65
REMARK   30  A    between atoms: _67  and  _69
REMARK   31  A    between atoms: _69  and  _70
REMARK   32  A    between atoms: _69  and  _72
REMARK   33  A    between atoms: _72  and  _73
REMARK   34  A    between atoms: _78  and  _80
REMARK   35  A    between atoms: _80  and  _81
REMARK   36  A    between atoms: _80  and  _83
REMARK   37  A    between atoms: _83  and  _84
REMARK   38  A    between atoms: _86  and  _88
REMARK   39  A    between atoms: _88  and  _89
REMARK   40  A    between atoms: _88  and  _91
REMARK   41  A    between atoms: _91  and  _92
REMARK   42  A    between atoms: _94  and  _96
REMARK   43  A    between atoms: _96  and  _97
REMARK   44  A    between atoms: _96  and  _99
REMARK   45  A    between atoms: _99  and  _100
REMARK   46  A    between atoms: _103  and  _105
REMARK   47  A    between atoms: _105  and  _106
REMARK   48  A    between atoms: _109  and  _111
REMARK   49  A    between atoms: _111  and  _112
REMARK   50  A    between atoms: _111  and  _114
REMARK   51  A    between atoms: _114  and  _115
REMARK   52  A    between atoms: _118  and  _120
REMARK   53  A    between atoms: _120  and  _121
REMARK   54  A    between atoms: _120  and  _123
REMARK   55  A    between atoms: _123  and  _124
REMARK   56  A    between atoms: _124  and  _125
REMARK   57  A    between atoms: _125  and  _126
REMARK   58  A    between atoms: _126  and  _127
REMARK   59  A    between atoms: _131  and  _133
REMARK   60  A    between atoms: _133  and  _134
REMARK   61  A    between atoms: _133  and  _136
REMARK   62  A    between atoms: _136  and  _137
REMARK   63  A    between atoms: _140  and  _142
REMARK   64  A    between atoms: _142  and  _143
REMARK   65  A    between atoms: _142  and  _145
REMARK   66  A    between atoms: _145  and  _146
REMARK   67  A    between atoms: _149  and  _151
REMARK   68  A    between atoms: _151  and  _152
REMARK   69  A    between atoms: _151  and  _154
REMARK   70  A    between atoms: _157  and  _159
REMARK   71  A    between atoms: _159  and  _160
REMARK   72  A    between atoms: _159  and  _162
REMARK   73  A    between atoms: _162  and  _163
REMARK   74  A    between atoms: _166  and  _168
REMARK   75  A    between atoms: _168  and  _169
REMARK   76  A    between atoms: _168  and  _171
REMARK   77  A    between atoms: _171  and  _172
REMARK   78  A    between atoms: _175  and  _177
REMARK   79  A    between atoms: _177  and  _178
REMARK   80  A    between atoms: _180  and  _182
REMARK   81  A    between atoms: _182  and  _183
REMARK   82  A    between atoms: _182  and  _185
REMARK   83  A    between atoms: _185  and  _186
REMARK   84  A    between atoms: _189  and  _191
REMARK   85  A    between atoms: _191  and  _192
REMARK   86  A    between atoms: _194  and  _196
REMARK   87  A    between atoms: _196  and  _197
REMARK   88  A    between atoms: _196  and  _199
REMARK   89  A    between atoms: _199  and  _200
REMARK   90  A    between atoms: _200  and  _201
REMARK   91  A    between atoms: _203  and  _205
REMARK   92  A    between atoms: _205  and  _206
REMARK   93  A    between atoms: _205  and  _208
REMARK   94  A    between atoms: _208  and  _209
REMARK   95  A    between atoms: _212  and  _214
REMARK   96  A    between atoms: _214  and  _215
REMARK   97  A    between atoms: _218  and  _220
REMARK   98  A    between atoms: _220  and  _221
REMARK   99  A    between atoms: _220  and  _223
REMARK  100  A    between atoms: _223  and  _224
REMARK  101  A    between atoms: _227  and  _229
REMARK  102  A    between atoms: _229  and  _230
REMARK  103  A    between atoms: _229  and  _232
REMARK  104  A    between atoms: _232  and  _233
REMARK  105  A    between atoms: _236  and  _238
REMARK  106  A    between atoms: _238  and  _239
REMARK  107  A    between atoms: _238  and  _241
REMARK  108  A    between atoms: _241  and  _242
REMARK  109  A    between atoms: _245  and  _247
REMARK  110  A    between atoms: _247  and  _248
REMARK  111  A    between atoms: _247  and  _250
REMARK  112  A    between atoms: _250  and  _251
REMARK  113  A    between atoms: _256  and  _258
REMARK  114  A    between atoms: _258  and  _259
REMARK  115  A    between atoms: _258  and  _261
REMARK  116  A    between atoms: _261  and  _262
REMARK  117  A    between atoms: _267  and  _269
REMARK  118  A    between atoms: _269  and  _270
REMARK  119  A    between atoms: _269  and  _272
REMARK  120  A    between atoms: _272  and  _273
REMARK  121  A    between atoms: _276  and  _278
REMARK  122  A    between atoms: _278  and  _279
REMARK  123  A    between atoms: _281  and  _283
REMARK  124  A    between atoms: _283  and  _284
REMARK  125  A    between atoms: _283  and  _286
REMARK  126  A    between atoms: _286  and  _287
REMARK  127  A    between atoms: _290  and  _292
REMARK  128  A    between atoms: _292  and  _293
REMARK  129  A    between atoms: _292  and  _295
REMARK  130  A    between atoms: _295  and  _296
REMARK  131  A    between atoms: _299  and  _301
REMARK  132  A    between atoms: _301  and  _302
REMARK  133  A    between atoms: _305  and  _307
REMARK  134  A    between atoms: _307  and  _308
REMARK  135  A    between atoms: _307  and  _310
REMARK  136  A    between atoms: _310  and  _311
REMARK  137  A    between atoms: _311  and  _312
REMARK  138  A    between atoms: _312  and  _313
REMARK  139  A    between atoms: _313  and  _314
REMARK  140  A    between atoms: _318  and  _320
REMARK  141  A    between atoms: _320  and  _321
REMARK  142  A    between atoms: _323  and  _325
REMARK  143  A    between atoms: _325  and  _326
REMARK  144  A    between atoms: _325  and  _328
REMARK  145  A    between atoms: _328  and  _329
REMARK  146  A    between atoms: _332  and  _334
REMARK  147  A    between atoms: _334  and  _335
REMARK  148  A    between atoms: _334  and  _337
REMARK  149  A    between atoms: _337  and  _338
REMARK  150  A    between atoms: _344  and  _346
REMARK  151  A    between atoms: _346  and  _347
REMARK  152  A    between atoms: _349  and  _351
REMARK  153  A    between atoms: _351  and  _352
REMARK  154  A    between atoms: _351  and  _354
REMARK  155  A    between atoms: _357  and  _359
REMARK  156  A    between atoms: _359  and  _360
REMARK  157  A    between atoms: _362  and  _364
REMARK  158  A    between atoms: _364  and  _365
REMARK  159  A    between atoms: _364  and  _367
REMARK  160  A    between atoms: _367  and  _368
REMARK  161  A    between atoms: _374  and  _376
REMARK  162  A    between atoms: _376  and  _377
REMARK  163  A    between atoms: _376  and  _379
REMARK  164  A    between atoms: _379  and  _380
REMARK  165  A    between atoms: _385  and  _386
REMARK  166  A    between atoms: _388  and  _390
REMARK  167  A    between atoms: _390  and  _391
REMARK  168  A    between atoms: _390  and  _393
REMARK  169  A    between atoms: _393  and  _394
REMARK  170  A    between atoms: _396  and  _398
REMARK  171  A    between atoms: _398  and  _399
REMARK  172  A    between atoms: _398  and  _401
REMARK  173  A    between atoms: _401  and  _402
REMARK  174  A    between atoms: _407  and  _408
REMARK  175  A    between atoms: _410  and  _412
REMARK  176  A    between atoms: _412  and  _413
REMARK  177  A    between atoms: _412  and  _415
REMARK  178  A    between atoms: _418  and  _420
REMARK  179  A    between atoms: _420  and  _421
REMARK  180  A    between atoms: _420  and  _423
REMARK  181  A    between atoms: _423  and  _424
REMARK  182  A    between atoms: _427  and  _429
REMARK  183  A    between atoms: _429  and  _430
REMARK  184  A    between atoms: _429  and  _432
REMARK  185  A    between atoms: _435  and  _437
REMARK  186  A    between atoms: _437  and  _438
REMARK  187  A    between atoms: _437  and  _440
REMARK  188  A    between atoms: _440  and  _441
REMARK  189  A    between atoms: _444  and  _446
REMARK  190  A    between atoms: _446  and  _447
REMARK  191  A    between atoms: _446  and  _449
REMARK  192  A    between atoms: _449  and  _450
REMARK  193  A    between atoms: _453  and  _455
REMARK  194  A    between atoms: _455  and  _456
REMARK  195  A    between atoms: _455  and  _458
REMARK  196  A    between atoms: _458  and  _459
REMARK  197  A    between atoms: _459  and  _460
REMARK  198  A    between atoms: _460  and  _461
REMARK  199  A    between atoms: _461  and  _462
REMARK  200  A    between atoms: _466  and  _468
REMARK  201  A    between atoms: _468  and  _469
REMARK  202  A    between atoms: _468  and  _471
REMARK  203  A    between atoms: _471  and  _472
REMARK  204  A    between atoms: _477  and  _479
REMARK  205  A    between atoms: _479  and  _480
REMARK  206  A    between atoms: _483  and  _485
REMARK  207  A    between atoms: _485  and  _486
REMARK  208  A    between atoms: _485  and  _488
REMARK  209  A    between atoms: _488  and  _489
REMARK  210  A    between atoms: _499  and  _501
REMARK  211  A    between atoms: _501  and  _502
REMARK  212  A    between atoms: _501  and  _504
REMARK  213  A    between atoms: _504  and  _505
REMARK  214  A    between atoms: _505  and  _506
REMARK  215  A    between atoms: _509  and  _511
REMARK  216  A    between atoms: _511  and  _512
REMARK  217  A    between atoms: _511  and  _514
REMARK  218  A    between atoms: _514  and  _515
REMARK  219  A    between atoms: _517  and  _519
REMARK  220  A    between atoms: _519  and  _520
REMARK  221  A    between atoms: _519  and  _522
REMARK  222  A    between atoms: _522  and  _523
REMARK  223  A    between atoms: _529  and  _531
REMARK  224  A    between atoms: _531  and  _532
REMARK  225  A    between atoms: _531  and  _534
REMARK  226  A    between atoms: _534  and  _535
REMARK  227  A    between atoms: _538  and  _540
REMARK  228  A    between atoms: _540  and  _541
REMARK  229  A    between atoms: _540  and  _543
REMARK  230  A    between atoms: _546  and  _548
REMARK  231  A    between atoms: _548  and  _549
REMARK  232  A    between atoms: _551  and  _553
REMARK  233  A    between atoms: _553  and  _554
REMARK  234  A    between atoms: _553  and  _556
REMARK  235  A    between atoms: _556  and  _557
REMARK  236  A    between atoms: _560  and  _562
REMARK  237  A    between atoms: _562  and  _563
REMARK  238  A    between atoms: _562  and  _565
REMARK  239  A    between atoms: _565  and  _566
REMARK  240  A    between atoms: _566  and  _567
REMARK  241  A    between atoms: _567  and  _568
REMARK  242  A    between atoms: _568  and  _569
REMARK  243  A    between atoms: _573  and  _575
REMARK  244  A    between atoms: _575  and  _576
REMARK  245  A    between atoms: _575  and  _578
REMARK                            x       y       z     vdW  Elec       q    Type
REMARK                         _______ _______ _______ _____ _____    ______ ____
ROOT
ATOM      1  C   GLY A   1      13.646  39.935  31.180  0.00  0.00    +0.240 C 
ATOM      2  O   GLY A   1      13.576  40.215  32.377  0.00  0.00    -0.274 OA
ATOM      3  N   THR A   2      14.231  38.830  30.726  0.00  0.00    -0.296 N 
ATOM      4  H   THR A   2      14.256  38.662  29.700  0.00  0.00    +0.150 HD
ENDROOT
BRANCH   1   5
ATOM      5  CA  GLY A   1      13.055  40.863  30.135  0.00  0.00    +0.169 C 
BRANCH   5   6
ATOM      6  N   GLY A   1      13.911  40.958  28.966  0.00  0.00    -0.236 NA
ATOM      7  H   GLY A   1      13.559  40.644  28.039  0.00  0.00    +0.142 HD
ENDBRANCH   5   6
ENDBRANCH   1   5
BRANCH   3   8
ATOM      8  CA  THR A   2      14.841  37.843  31.617  0.00  0.00    +0.164 C 
BRANCH   8   9
ATOM      9  C   THR A   2      16.026  38.433  32.375  0.00  0.00    +0.229 C 
ATOM     10  O   THR A   2      16.166  38.231  33.579  0.00  0.00    -0.286 OA
ENDBRANCH   8   9
BRANCH   8  11
ATOM     11  CB  THR A   2      15.332  36.602  30.834  0.00  0.00    +0.136 C 
ATOM     12  CG2 THR A   2      16.084  35.647  31.755  0.00  0.00    +0.034 C 
BRANCH  11  13
ATOM     13  OG1 THR A   2      14.209  35.917  30.262  0.00  0.00    -0.382 OA
ATOM     14  HG1 THR A   2      13.731  36.527  29.646  0.00  0.00    +0.210 HD
ENDBRANCH  11  13
ENDBRANCH   8  11
ENDBRANCH   3   8
TORSDOF 6
REMARK  Name = ../refined-set-2016/2qg2/2qg2_pocket.pdb
REMARK  245 active torsions:
REMARK  status: ('A' for Active; 'I' for Inactive)
REMARK    1  A    between atoms: _1  and  _3
REMARK    2  A    between atoms: _3  and  _4
REMARK    3  A    between atoms: _3  and  _6
REMARK    4  A    between atoms: _6  and  _7
REMARK    5  A    between atoms: _13  and  _15
REMARK    6  A    between atoms: _15  and  _16
REMARK    7  A    between atoms: _15  and  _18
REMARK    8  A    between atoms: _18  and  _19
REMARK    9  A    between atoms: _22  and  _24
REMARK   10  A    between atoms: _24  and  _25
REMARK   11  A    between atoms: _24  and  _27
REMARK   12  A    between atoms: _27  and  _28
REMARK   13  A    between atoms: _31  and  _33
REMARK   14  A    between atoms: _33  and  _34
REMARK   15  A    between atoms: _33  and  _36
REMARK   16  A    between atoms: _36  and  _37
REMARK   17  A    between atoms: _37  and  _38
REMARK   18  A    between atoms: _41  and  _43
REMARK   19  A    between atoms: _43  and  _44
REMARK   20  A    between atoms: _43  and  _46
REMARK   21  A    between atoms: _46  and  _47
REMARK   22  A    between atoms: _50  and  _52
REMARK   23  A    between atoms: _52  and  _53
REMARK   24  A    between atoms: _52  and  _55
REMARK   25  A    between atoms: _55  and  _56
REMARK   26  A    between atoms: _59  and  _61
REMARK   27  A    between atoms: _61  and  _62
REMARK   28  A    between atoms: _61  and  _64
REMARK   29  A    between atoms: _64  and  _65
REMARK   30  A    between atoms: _67  and  _69
REMARK   31  A    between atoms: _69  and  _70
REMARK   32  A    between atoms: _69  and  _72
REMARK   33  A    between atoms: _72  and  _73
REMARK   34  A    between atoms: _78  and  _80
REMARK   35  A    between atoms: _80  and  _81
REMARK   36  A    between atoms: _80  and  _83
REMARK   37  A    between atoms: _83  and  _84
REMARK   38  A    between atoms: _86  and  _88
REMARK   39  A    between atoms: _88  and  _89
REMARK   40  A    between atoms: _88  and  _91
REMARK   41  A    between atoms: _91  and  _92
REMARK   42  A    between atoms: _94  and  _96
REMARK   43  A    between atoms: _96  and  _97
REMARK   44  A    between atoms: _96  and  _99
REMARK   45  A    between atoms: _99  and  _100
REMARK   46  A    between atoms: _103  and  _105
REMARK   47  A    between atoms: _105  and  _106
REMARK   48  A    between atoms: _109  and  _111
REMARK   49  A    between atoms: _111  and  _112
REMARK   50  A    between atoms: _111  and  _114
REMARK   51  A    between atoms: _114  and  _115
REMARK   52  A    between atoms: _118  and  _120
REMARK   53  A    between atoms: _120  and  _121
REMARK   54  A    between atoms: _120  and  _123
REMARK   55  A    between atoms: _123  and  _124
REMARK   56  A    between atoms: _124  and  _125
REMARK   57  A    between atoms: _125  and  _126
REMARK   58  A    between atoms: _126  and  _127
REMARK   59  A    between atoms: _131  and  _133
REMARK   60  A    between atoms: _133  and  _134
REMARK   61  A    between atoms: _133  and  _136
REMARK   62  A    between atoms: _136  and  _137
REMARK   63  A    between atoms: _140  and  _142
REMARK   64  A    between atoms: _142  and  _143
REMARK   65  A    between atoms: _142  and  _145
REMARK   66  A    between atoms: _145  and  _146
REMARK   67  A    between atoms: _149  and  _151
REMARK   68  A    between atoms: _151  and  _152
REMARK   69  A    between atoms: _151  and  _154
REMARK   70  A    between atoms: _157  and  _159
REMARK   71  A    between atoms: _159  and  _160
REMARK   72  A    between atoms: _159  and  _162
REMARK   73  A    between atoms: _162  and  _163
REMARK   74  A    between atoms: _166  and  _168
REMARK   75  A    between atoms: _168  and  _169
REMARK   76  A    between atoms: _168  and  _171
REMARK   77  A    between atoms: _171  and  _172
REMARK   78  A    between atoms: _175  and  _177
REMARK   79  A    between atoms: _177  and  _178
REMARK   80  A    between atoms: _180  and  _182
REMARK   81  A    between atoms: _182  and  _183
REMARK   82  A    between atoms: _182  and  _185
REMARK   83  A    between atoms: _185  and  _186
REMARK   84  A    between atoms: _189  and  _191
REMARK   85  A    between atoms: _191  and  _192
REMARK   86  A    between atoms: _194  and  _196
REMARK   87  A    between atoms: _196  and  _197
REMARK   88  A    between atoms: _196  and  _199
REMARK   89  A    between atoms: _199  and  _200
REMARK   90  A    between atoms: _200  and  _201
REMARK   91  A    between atoms: _203  and  _205
REMARK   92  A    between atoms: _205  and  _206
REMARK   93  A    between atoms: _205  and  _208
REMARK   94  A    between atoms: _208  and  _209
REMARK   95  A    between atoms: _212  and  _214
REMARK   96  A    between atoms: _214  and  _215
REMARK   97  A    between atoms: _218  and  _220
REMARK   98  A    between atoms: _220  and  _221
REMARK   99  A    between atoms: _220  and  _223
REMARK  100  A    between atoms: _223  and  _224
REMARK  101  A    between atoms: _227  and  _229
REMARK  102  A    between atoms: _229  and  _230
REMARK  103  A    between atoms: _229  and  _232
REMARK  104  A    between atoms: _232  and  _233
REMARK  105  A    between atoms: _236  and  _238
REMARK  106  A    between atoms: _238  and  _239
REMARK  107  A    between atoms: _238  and  _241
REMARK  108  A    between atoms: _241  and  _242
REMARK  109  A    between atoms: _245  and  _247
REMARK  110  A    between atoms: _247  and  _248
REMARK  111  A    between atoms: _247  and  _250
REMARK  112  A    between atoms: _250  and  _251
REMARK  113  A    between atoms: _256  and  _258
REMARK  114  A    between atoms: _258  and  _259
REMARK  115  A    between atoms: _258  and  _261
REMARK  116  A    between atoms: _261  and  _262
REMARK  117  A    between atoms: _267  and  _269
REMARK  118  A    between atoms: _269  and  _270
REMARK  119  A    between atoms: _269  and  _272
REMARK  120  A    between atoms: _272  and  _273
REMARK  121  A    between atoms: _276  and  _278
REMARK  122  A    between atoms: _278  and  _279
REMARK  123  A    between atoms: _281  and  _283
REMARK  124  A    between atoms: _283  and  _284
REMARK  125  A    between atoms: _283  and  _286
REMARK  126  A    between atoms: _286  and  _287
REMARK  127  A    between atoms: _290  and  _292
REMARK  128  A    between atoms: _292  and  _293
REMARK  129  A    between atoms: _292  and  _295
REMARK  130  A    between atoms: _295  and  _296
REMARK  131  A    between atoms: _299  and  _301
REMARK  132  A    between atoms: _301  and  _302
REMARK  133  A    between atoms: _305  and  _307
REMARK  134  A    between atoms: _307  and  _308
REMARK  135  A    between atoms: _307  and  _310
REMARK  136  A    between atoms: _310  and  _311
REMARK  137  A    between atoms: _311  and  _312
REMARK  138  A    between atoms: _312  and  _313
REMARK  139  A    between atoms: _313  and  _314
REMARK  140  A    between atoms: _318  and  _320
REMARK  141  A    between atoms: _320  and  _321
REMARK  142  A    between atoms: _323  and  _325
REMARK  143  A    between atoms: _325  and  _326
REMARK  144  A    between atoms: _325  and  _328
REMARK  145  A    between atoms: _328  and  _329
REMARK  146  A    between atoms: _332  and  _334
REMARK  147  A    between atoms: _334  and  _335
REMARK  148  A    between atoms: _334  and  _337
REMARK  149  A    between atoms: _337  and  _338
REMARK  150  A    between atoms: _344  and  _346
REMARK  151  A    between atoms: _346  and  _347
REMARK  152  A    between atoms: _349  and  _351
REMARK  153  A    between atoms: _351  and  _352
REMARK  154  A    between atoms: _351  and  _354
REMARK  155  A    between atoms: _357  and  _359
REMARK  156  A    between atoms: _359  and  _360
REMARK  157  A    between atoms: _362  and  _364
REMARK  158  A    between atoms: _364  and  _365
REMARK  159  A    between atoms: _364  and  _367
REMARK  160  A    between atoms: _367  and  _368
REMARK  161  A    between atoms: _374  and  _376
REMARK  162  A    between atoms: _376  and  _377
REMARK  163  A    between atoms: _376  and  _379
REMARK  164  A    between atoms: _379  and  _380
REMARK  165  A    between atoms: _385  and  _386
REMARK  166  A    between atoms: _388  and  _390
REMARK  167  A    between atoms: _390  and  _391
REMARK  168  A    between atoms: _390  and  _393
REMARK  169  A    between atoms: _393  and  _394
REMARK  170  A    between atoms: _396  and  _398
REMARK  171  A    between atoms: _398  and  _399
REMARK  172  A    between atoms: _398  and  _401
REMARK  173  A    between atoms: _401  and  _402
REMARK  174  A    between atoms: _407  and  _408
REMARK  175  A    between atoms: _410  and  _412
REMARK  176  A    between atoms: _412  and  _413
REMARK  177  A    between atoms: _412  and  _415
REMARK  178  A    between atoms: _418  and  _420
REMARK  179  A    between atoms: _420  and  _421
REMARK  180  A    between atoms: _420  and  _423
REMARK  181  A    between atoms: _423  and  _424
REMARK  182  A    between atoms: _427  and  _429
REMARK  183  A    between atoms: _429  and  _430
REMARK  184  A    between atoms: _429  and  _432
REMARK  185  A    between atoms: _435  and  _437
REMARK  186  A    between atoms: _437  and  _438
REMARK  187  A    between atoms: _437  and  _440
REMARK  188  A    between atoms: _440  and  _441
REMARK  189  A    between atoms: _444  and  _446
REMARK  190  A    between atoms: _446  and  _447
REMARK  191  A    between atoms: _446  and  _449
REMARK  192  A    between atoms: _449  and  _450
REMARK  193  A    between atoms: _453  and  _455
REMARK  194  A    between atoms: _455  and  _456
REMARK  195  A    between atoms: _455  and  _458
REMARK  196  A    between atoms: _458  and  _459
REMARK  197  A    between atoms: _459  and  _460
REMARK  198  A    between atoms: _460  and  _461
REMARK  199  A    between atoms: _461  and  _462
REMARK  200  A    between atoms: _466  and  _468
REMARK  201  A    between atoms: _468  and  _469
REMARK  202  A    between atoms: _468  and  _471
REMARK  203  A    between atoms: _471  and  _472
REMARK  204  A    between atoms: _477  and  _479
REMARK  205  A    between atoms: _479  and  _480
REMARK  206  A    between atoms: _483  and  _485
REMARK  207  A    between atoms: _485  and  _486
REMARK  208  A    between atoms: _485  and  _488
REMARK  209  A    between atoms: _488  and  _489
REMARK  210  A    between atoms: _499  and  _501
REMARK  211  A    between atoms: _501  and  _502
REMARK  212  A    between atoms: _501  and  _504
REMARK  213  A    between atoms: _504  and  _505
REMARK  214  A    between atoms: _505  and  _506
REMARK  215  A    between atoms: _509  and  _511
REMARK  216  A    between atoms: _511  and  _512
REMARK  217  A    between atoms: _511  and  _514
REMARK  218  A    between atoms: _514  and  _515
REMARK  219  A    between atoms: _517  and  _519
REMARK  220  A    between atoms: _519  and  _520
REMARK  221  A    between atoms: _519  and  _522
REMARK  222  A    between atoms: _522  and  _523
REMARK  223  A    between atoms: _529  and  _531
REMARK  224  A    between atoms: _531  and  _532
REMARK  225  A    between atoms: _531  and  _534
REMARK  226  A    between atoms: _534  and  _535
REMARK  227  A    between atoms: _538  and  _540
REMARK  228  A    between atoms: _540  and  _541
REMARK  229  A    between atoms: _540  and  _543
REMARK  230  A    between atoms: _546  and  _548
REMARK  231  A    between atoms: _548  and  _549
REMARK  232  A    between atoms: _551  and  _553
REMARK  233  A    between atoms: _553  and  _554
REMARK  234  A    between atoms: _553  and  _556
REMARK  235  A    between atoms: _556  and  _557
REMARK  236  A    between atoms: _560  and  _562
REMARK  237  A    between atoms: _562  and  _563
REMARK  238  A    between atoms: _562  and  _565
REMARK  239  A    between atoms: _565  and  _566
REMARK  240  A    between atoms: _566  and  _567
REMARK  241  A    between atoms: _567  and  _568
REMARK  242  A    between atoms: _568  and  _569
REMARK  243  A    between atoms: _573  and  _575
REMARK  244  A    between atoms: _575  and  _576
REMARK  245  A    between atoms: _575  and  _578
REMARK                            x       y       z     vdW  Elec       q    Type
REMARK                         _______ _______ _______ _____ _____    ______ ____
ROOT
ATOM      1  C   GLY A   4       4.905  34.571  32.423  0.00  0.00    +0.243 C 
ATOM      2  O   GLY A   4       4.579  33.665  33.189  0.00  0.00    -0.273 OA
ATOM      3  N   PHE A   5       4.928  34.403  31.104  0.00  0.00    -0.297 N 
ATOM      4  H   PHE A   5       5.210  35.191  30.487  0.00  0.00    +0.150 HD
ENDROOT
BRANCH   1   5
ATOM      5  CA  GLY A   4       5.297  35.937  32.975  0.00  0.00    +0.176 C 
BRANCH   5   7
ATOM      6  C   VAL A   3       7.366  36.257  31.750  0.00  0.00    +0.241 C 
ATOM      7  N   GLY A   4       6.181  36.727  32.134  0.00  0.00    -0.295 N 
ATOM      8  H   GLY A   4       5.883  37.675  31.827  0.00  0.00    +0.150 HD
ATOM      9  O   VAL A   3       7.781  35.140  32.061  0.00  0.00    -0.273 OA
BRANCH   6  10
ATOM     10  CA  VAL A   3       8.202  37.184  30.869  0.00  0.00    +0.149 C 
BRANCH  10  12
ATOM     11  C   GLY A   2       7.503  39.389  30.185  0.00  0.00    +0.243 C 
ATOM     12  N   VAL A   3       7.937  38.587  31.150  0.00  0.00    -0.297 N 
ATOM     13  H   VAL A   3       8.088  38.962  32.108  0.00  0.00    +0.150 HD
ATOM     14  O   GLY A   2       7.311  38.991  29.041  0.00  0.00    -0.273 OA
BRANCH  11  15
ATOM     15  CA  GLY A   2       7.239  40.839  30.532  0.00  0.00    +0.176 C 
BRANCH  15  17
ATOM     16  C   PHE A   1       9.056  41.576  31.960  0.00  0.00    +0.239 C 
ATOM     17  N   GLY A   2       7.757  41.342  31.789  0.00  0.00    -0.296 N 
ATOM     18  H   GLY A   2       7.100  41.524  32.574  0.00  0.00    +0.150 HD
ATOM     19  O   PHE A   1       9.905  41.357  31.095  0.00  0.00    -0.274 OA
BRANCH  16  20
ATOM     20  CA  PHE A   1       9.443  42.141  33.316  0.00  0.00    +0.149 C 
BRANCH  20  21
ATOM     21  N   PHE A   1       8.286  42.206  34.206  0.00  0.00    -0.238 NA
ATOM     22  H   PHE A   1       7.849  41.321  34.533  0.00  0.00    +0.142 HD
ENDBRANCH  20  21
BRANCH  20  23
ATOM     23  CB  PHE A   1      10.542  41.299  33.966  0.00  0.00    +0.053 C 
BRANCH  23  24
ATOM     24  CG  PHE A   1      11.014  41.854  35.281  0.00  0.00    -0.020 A 
ATOM     25  CD2 PHE A   1      10.390  41.483  36.463  0.00  0.00    -0.004 A 
ATOM     26  CE2 PHE A   1      10.756  42.058  37.668  0.00  0.00    -0.000 A 
ATOM     27  CZ  PHE A   1      11.762  43.016  37.700  0.00  0.00    -0.000 A 
ATOM     28  CE1 PHE A   1      12.397  43.390  36.526  0.00  0.00    -0.000 A 
ATOM     29  CD1 PHE A   1      12.022  42.809  35.328  0.00  0.00    -0.004 A 
ENDBRANCH  23  24
ENDBRANCH  20  23
ENDBRANCH  16  20
ENDBRANCH  15  17
ENDBRANCH  11  15
ENDBRANCH  10  12
BRANCH  10  30
ATOM     30  CB  VAL A   3       9.705  36.849  31.041  0.00  0.00    +0.027 C 
ATOM     31  CG2 VAL A   3      10.178  37.235  32.426  0.00  0.00    +0.002 C 
ATOM     32  CG1 VAL A   3      10.520  37.584  29.988  0.00  0.00    +0.002 C 
ENDBRANCH  10  30
ENDBRANCH   6  10
ENDBRANCH   5   7
ENDBRANCH   1   5
BRANCH   3  33
ATOM     33  CA  PHE A   5       4.558  33.115  30.518  0.00  0.00    +0.153 C 
BRANCH  33  34
ATOM     34  C   PHE A   5       5.306  31.944  31.149  0.00  0.00    +0.241 C 
ATOM     35  O   PHE A   5       4.720  30.900  31.430  0.00  0.00    -0.273 OA
ATOM     36  N   TYR A   6       6.604  32.117  31.360  0.00  0.00    -0.297 N 
ATOM     37  H   TYR A   6       7.045  33.028  31.120  0.00  0.00    +0.150 HD
BRANCH  36  38
ATOM     38  CA  TYR A   6       7.421  31.051  31.923  0.00  0.00    +0.153 C 
BRANCH  38  39
ATOM     39  C   TYR A   6       7.031  30.649  33.338  0.00  0.00    +0.241 C 
ATOM     40  N   SER A   7       6.207  31.457  33.994  0.00  0.00    -0.296 N 
ATOM     41  H   SER A   7       5.865  32.329  33.543  0.00  0.00    +0.150 HD
ATOM     42  O   TYR A   6       7.467  29.609  33.829  0.00  0.00    -0.273 OA
BRANCH  40  43
ATOM     43  CA  SER A   7       5.782  31.120  35.348  0.00  0.00    +0.166 C 
BRANCH  43  44
ATOM     44  CB  SER A   7       4.939  29.855  35.312  0.00  0.00    +0.229 C 
ATOM     45  OG  SER A   7       4.694  29.241  36.342  0.00  0.00    -0.286 OA
ENDBRANCH  43  44
BRANCH  43  46
ATOM     46  C   SER A   7       4.982  32.268  35.980  0.00  0.00    +0.165 C 
BRANCH  46  47
ATOM     47  O   SER A   7       3.743  32.461  35.332  0.00  0.00    -0.380 OA
ATOM     48  H   SER A   7       3.901  32.678  34.379  0.00  0.00    +0.211 HD
ENDBRANCH  46  47
ENDBRANCH  43  46
ENDBRANCH  40  43
ENDBRANCH  38  39
BRANCH  38  49
ATOM     49  CB  TYR A   6       8.897  31.443  31.862  0.00  0.00    +0.055 C 
BRANCH  49  50
ATOM     50  CG  TYR A   6       9.323  31.832  30.466  0.00  0.00    -0.020 A 
ATOM     51  CD2 TYR A   6       9.581  33.157  30.155  0.00  0.00    -0.001 A 
ATOM     52  CE2 TYR A   6       9.899  33.542  28.876  0.00  0.00    +0.036 A 
ATOM     53  CZ  TYR A   6       9.968  32.603  27.875  0.00  0.00    +0.134 A 
ATOM     54  CE1 TYR A   6       9.723  31.270  28.145  0.00  0.00    +0.036 A 
ATOM     55  CD1 TYR A   6       9.402  30.889  29.447  0.00  0.00    -0.001 A 
BRANCH  53  56
ATOM     56  OH  TYR A   6      10.282  33.032  26.609  0.00  0.00    -0.506 OA
ATOM     57  HH  TYR A   6      10.297  32.257  25.993  0.00  0.00    +0.292 HD
ENDBRANCH  53  56
ENDBRANCH  49  50
ENDBRANCH  38  49
ENDBRANCH  36  38
ENDBRANCH  33  34
BRANCH  33  58
ATOM     58  CB  PHE A   5       4.841  33.091  29.017  0.00  0.00    +0.055 C 
BRANCH  58  59
ATOM     59  CG  PHE A   5       4.660  31.734  28.401  0.00  0.00    -0.020 A 
ATOM     60  CD2 PHE A   5       3.395  31.224  28.179  0.00  0.00    -0.004 A 
ATOM     61  CE2 PHE A   5       3.221  29.958  27.663  0.00  0.00    -0.000 A 
ATOM     62  CZ  PHE A   5       4.316  29.180  27.361  0.00  0.00    -0.000 A 
ATOM     63  CE1 PHE A   5       5.589  29.676  27.574  0.00  0.00    -0.000 A 
ATOM     64  CD1 PHE A   5       5.757  30.948  28.090  0.00  0.00    -0.004 A 
ENDBRANCH  58  59
ENDBRANCH  33  58
ENDBRANCH   3  33
TORSDOF 24
REMARK  Name = ../refined-set-2016/2qg2/2qg2_pocket.pdb
REMARK  245 active torsions:
REMARK  status: ('A' for Active; 'I' for Inactive)
REMARK    1  A    between atoms: _1  and  _3
REMARK    2  A    between atoms: _3  and  _4
REMARK    3  A    between atoms: _3  and  _6
REMARK    4  A    between atoms: _6  and  _7
REMARK    5  A    between atoms: _13  and  _15
REMARK    6  A    between atoms: _15  and  _16
REMARK    7  A    between atoms: _15  and  _18
REMARK    8  A    between atoms: _18  and  _19
REMARK    9  A    between atoms: _22  and  _24
REMARK   10  A    between atoms: _24  and  _25
REMARK   11  A    between atoms: _24  and  _27
REMARK   12  A    between atoms: _27  and  _28
REMARK   13  A    between atoms: _31  and  _33
REMARK   14  A    between atoms: _33  and  _34
REMARK   15  A    between atoms: _33  and  _36
REMARK   16  A    between atoms: _36  and  _37
REMARK   17  A    between atoms: _37  and  _38
REMARK   18  A    between atoms: _41  and  _43
REMARK   19  A    between atoms: _43  and  _44
REMARK   20  A    between atoms: _43  and  _46
REMARK   21  A    between atoms: _46  and  _47
REMARK   22  A    between atoms: _50  and  _52
REMARK   23  A    between atoms: _52  and  _53
REMARK   24  A    between atoms: _52  and  _55
REMARK   25  A    between atoms: _55  and  _56
REMARK   26  A    between atoms: _59  and  _61
REMARK   27  A    between atoms: _61  and  _62
REMARK   28  A    between atoms: _61  and  _64
REMARK   29  A    between atoms: _64  and  _65
REMARK   30  A    between atoms: _67  and  _69
REMARK   31  A    between atoms: _69  and  _70
REMARK   32  A    between atoms: _69  and  _72
REMARK   33  A    between atoms: _72  and  _73
REMARK   34  A    between atoms: _78  and  _80
REMARK   35  A    between atoms: _80  and  _81
REMARK   36  A    between atoms: _80  and  _83
REMARK   37  A    between atoms: _83  and  _84
REMARK   38  A    between atoms: _86  and  _88
REMARK   39  A    between atoms: _88  and  _89
REMARK   40  A    between atoms: _88  and  _91
REMARK   41  A    between atoms: _91  and  _92
REMARK   42  A    between atoms: _94  and  _96
REMARK   43  A    between atoms: _96  and  _97
REMARK   44  A    between atoms: _96  and  _99
REMARK   45  A    between atoms: _99  and  _100
REMARK   46  A    between atoms: _103  and  _105
REMARK   47  A    between atoms: _105  and  _106
REMARK   48  A    between atoms: _109  and  _111
REMARK   49  A    between atoms: _111  and  _112
REMARK   50  A    between atoms: _111  and  _114
REMARK   51  A    between atoms: _114  and  _115
REMARK   52  A    between atoms: _118  and  _120
REMARK   53  A    between atoms: _120  and  _121
REMARK   54  A    between atoms: _120  and  _123
REMARK   55  A    between atoms: _123  and  _124
REMARK   56  A    between atoms: _124  and  _125
REMARK   57  A    between atoms: _125  and  _126
REMARK   58  A    between atoms: _126  and  _127
REMARK   59  A    between atoms: _131  and  _133
REMARK   60  A    between atoms: _133  and  _134
REMARK   61  A    between atoms: _133  and  _136
REMARK   62  A    between atoms: _136  and  _137
REMARK   63  A    between atoms: _140  and  _142
REMARK   64  A    between atoms: _142  and  _143
REMARK   65  A    between atoms: _142  and  _145
REMARK   66  A    between atoms: _145  and  _146
REMARK   67  A    between atoms: _149  and  _151
REMARK   68  A    between atoms: _151  and  _152
REMARK   69  A    between atoms: _151  and  _154
REMARK   70  A    between atoms: _157  and  _159
REMARK   71  A    between atoms: _159  and  _160
REMARK   72  A    between atoms: _159  and  _162
REMARK   73  A    between atoms: _162  and  _163
REMARK   74  A    between atoms: _166  and  _168
REMARK   75  A    between atoms: _168  and  _169
REMARK   76  A    between atoms: _168  and  _171
REMARK   77  A    between atoms: _171  and  _172
REMARK   78  A    between atoms: _175  and  _177
REMARK   79  A    between atoms: _177  and  _178
REMARK   80  A    between atoms: _180  and  _182
REMARK   81  A    between atoms: _182  and  _183
REMARK   82  A    between atoms: _182  and  _185
REMARK   83  A    between atoms: _185  and  _186
REMARK   84  A    between atoms: _189  and  _191
REMARK   85  A    between atoms: _191  and  _192
REMARK   86  A    between atoms: _194  and  _196
REMARK   87  A    between atoms: _196  and  _197
REMARK   88  A    between atoms: _196  and  _199
REMARK   89  A    between atoms: _199  and  _200
REMARK   90  A    between atoms: _200  and  _201
REMARK   91  A    between atoms: _203  and  _205
REMARK   92  A    between atoms: _205  and  _206
REMARK   93  A    between atoms: _205  and  _208
REMARK   94  A    between atoms: _208  and  _209
REMARK   95  A    between atoms: _212  and  _214
REMARK   96  A    between atoms: _214  and  _215
REMARK   97  A    between atoms: _218  and  _220
REMARK   98  A    between atoms: _220  and  _221
REMARK   99  A    between atoms: _220  and  _223
REMARK  100  A    between atoms: _223  and  _224
REMARK  101  A    between atoms: _227  and  _229
REMARK  102  A    between atoms: _229  and  _230
REMARK  103  A    between atoms: _229  and  _232
REMARK  104  A    between atoms: _232  and  _233
REMARK  105  A    between atoms: _236  and  _238
REMARK  106  A    between atoms: _238  and  _239
REMARK  107  A    between atoms: _238  and  _241
REMARK  108  A    between atoms: _241  and  _242
REMARK  109  A    between atoms: _245  and  _247
REMARK  110  A    between atoms: _247  and  _248
REMARK  111  A    between atoms: _247  and  _250
REMARK  112  A    between atoms: _250  and  _251
REMARK  113  A    between atoms: _256  and  _258
REMARK  114  A    between atoms: _258  and  _259
REMARK  115  A    between atoms: _258  and  _261
REMARK  116  A    between atoms: _261  and  _262
REMARK  117  A    between atoms: _267  and  _269
REMARK  118  A    between atoms: _269  and  _270
REMARK  119  A    between atoms: _269  and  _272
REMARK  120  A    between atoms: _272  and  _273
REMARK  121  A    between atoms: _276  and  _278
REMARK  122  A    between atoms: _278  and  _279
REMARK  123  A    between atoms: _281  and  _283
REMARK  124  A    between atoms: _283  and  _284
REMARK  125  A    between atoms: _283  and  _286
REMARK  126  A    between atoms: _286  and  _287
REMARK  127  A    between atoms: _290  and  _292
REMARK  128  A    between atoms: _292  and  _293
REMARK  129  A    between atoms: _292  and  _295
REMARK  130  A    between atoms: _295  and  _296
REMARK  131  A    between atoms: _299  and  _301
REMARK  132  A    between atoms: _301  and  _302
REMARK  133  A    between atoms: _305  and  _307
REMARK  134  A    between atoms: _307  and  _308
REMARK  135  A    between atoms: _307  and  _310
REMARK  136  A    between atoms: _310  and  _311
REMARK  137  A    between atoms: _311  and  _312
REMARK  138  A    between atoms: _312  and  _313
REMARK  139  A    between atoms: _313  and  _314
REMARK  140  A    between atoms: _318  and  _320
REMARK  141  A    between atoms: _320  and  _321
REMARK  142  A    between atoms: _323  and  _325
REMARK  143  A    between atoms: _325  and  _326
REMARK  144  A    between atoms: _325  and  _328
REMARK  145  A    between atoms: _328  and  _329
REMARK  146  A    between atoms: _332  and  _334
REMARK  147  A    between atoms: _334  and  _335
REMARK  148  A    between atoms: _334  and  _337
REMARK  149  A    between atoms: _337  and  _338
REMARK  150  A    between atoms: _344  and  _346
REMARK  151  A    between atoms: _346  and  _347
REMARK  152  A    between atoms: _349  and  _351
REMARK  153  A    between atoms: _351  and  _352
REMARK  154  A    between atoms: _351  and  _354
REMARK  155  A    between atoms: _357  and  _359
REMARK  156  A    between atoms: _359  and  _360
REMARK  157  A    between atoms: _362  and  _364
REMARK  158  A    between atoms: _364  and  _365
REMARK  159  A    between atoms: _364  and  _367
REMARK  160  A    between atoms: _367  and  _368
REMARK  161  A    between atoms: _374  and  _376
REMARK  162  A    between atoms: _376  and  _377
REMARK  163  A    between atoms: _376  and  _379
REMARK  164  A    between atoms: _379  and  _380
REMARK  165  A    between atoms: _385  and  _386
REMARK  166  A    between atoms: _388  and  _390
REMARK  167  A    between atoms: _390  and  _391
REMARK  168  A    between atoms: _390  and  _393
REMARK  169  A    between atoms: _393  and  _394
REMARK  170  A    between atoms: _396  and  _398
REMARK  171  A    between atoms: _398  and  _399
REMARK  172  A    between atoms: _398  and  _401
REMARK  173  A    between atoms: _401  and  _402
REMARK  174  A    between atoms: _407  and  _408
REMARK  175  A    between atoms: _410  and  _412
REMARK  176  A    between atoms: _412  and  _413
REMARK  177  A    between atoms: _412  and  _415
REMARK  178  A    between atoms: _418  and  _420
REMARK  179  A    between atoms: _420  and  _421
REMARK  180  A    between atoms: _420  and  _423
REMARK  181  A    between atoms: _423  and  _424
REMARK  182  A    between atoms: _427  and  _429
REMARK  183  A    between atoms: _429  and  _430
REMARK  184  A    between atoms: _429  and  _432
REMARK  185  A    between atoms: _435  and  _437
REMARK  186  A    between atoms: _437  and  _438
REMARK  187  A    between atoms: _437  and  _440
REMARK  188  A    between atoms: _440  and  _441
REMARK  189  A    between atoms: _444  and  _446
REMARK  190  A    between atoms: _446  and  _447
REMARK  191  A    between atoms: _446  and  _449
REMARK  192  A    between atoms: _449  and  _450
REMARK  193  A    between atoms: _453  and  _455
REMARK  194  A    between atoms: _455  and  _456
REMARK  195  A    between atoms: _455  and  _458
REMARK  196  A    between atoms: _458  and  _459
REMARK  197  A    between atoms: _459  and  _460
REMARK  198  A    between atoms: _460  and  _461
REMARK  199  A    between atoms: _461  and  _462
REMARK  200  A    between atoms: _466  and  _468
REMARK  201  A    between atoms: _468  and  _469
REMARK  202  A    between atoms: _468  and  _471
REMARK  203  A    between atoms: _471  and  _472
REMARK  204  A    between atoms: _477  and  _479
REMARK  205  A    between atoms: _479  and  _480
REMARK  206  A    between atoms: _483  and  _485
REMARK  207  A    between atoms: _485  and  _486
REMARK  208  A    between atoms: _485  and  _488
REMARK  209  A    between atoms: _488  and  _489
REMARK  210  A    between atoms: _499  and  _501
REMARK  211  A    between atoms: _501  and  _502
REMARK  212  A    between atoms: _501  and  _504
REMARK  213  A    between atoms: _504  and  _505
REMARK  214  A    between atoms: _505  and  _506
REMARK  215  A    between atoms: _509  and  _511
REMARK  216  A    between atoms: _511  and  _512
REMARK  217  A    between atoms: _511  and  _514
REMARK  218  A    between atoms: _514  and  _515
REMARK  219  A    between atoms: _517  and  _519
REMARK  220  A    between atoms: _519  and  _520
REMARK  221  A    between atoms: _519  and  _522
REMARK  222  A    between atoms: _522  and  _523
REMARK  223  A    between atoms: _529  and  _531
REMARK  224  A    between atoms: _531  and  _532
REMARK  225  A    between atoms: _531  and  _534
REMARK  226  A    between atoms: _534  and  _535
REMARK  227  A    between atoms: _538  and  _540
REMARK  228  A    between atoms: _540  and  _541
REMARK  229  A    between atoms: _540  and  _543
REMARK  230  A    between atoms: _546  and  _548
REMARK  231  A    between atoms: _548  and  _549
REMARK  232  A    between atoms: _551  and  _553
REMARK  233  A    between atoms: _553  and  _554
REMARK  234  A    between atoms: _553  and  _556
REMARK  235  A    between atoms: _556  and  _557
REMARK  236  A    between atoms: _560  and  _562
REMARK  237  A    between atoms: _562  and  _563
REMARK  238  A    between atoms: _562  and  _565
REMARK  239  A    between atoms: _565  and  _566
REMARK  240  A    between atoms: _566  and  _567
REMARK  241  A    between atoms: _567  and  _568
REMARK  242  A    between atoms: _568  and  _569
REMARK  243  A    between atoms: _573  and  _575
REMARK  244  A    between atoms: _575  and  _576
REMARK  245  A    between atoms: _575  and  _578
REMARK                            x       y       z     vdW  Elec       q    Type
REMARK                         _______ _______ _______ _____ _____    ______ ____
ROOT
ATOM      1  CG  TYR A   1       7.931  25.722  32.750  0.00  0.00    -0.020 A 
ATOM      2  CD2 TYR A   1       7.941  24.391  32.336  0.00  0.00    -0.001 A 
ATOM      3  CE2 TYR A   1       7.732  24.052  31.010  0.00  0.00    +0.036 A 
ATOM      4  CZ  TYR A   1       7.508  25.050  30.082  0.00  0.00    +0.134 A 
ATOM      5  CE1 TYR A   1       7.506  26.370  30.467  0.00  0.00    +0.036 A 
ATOM      6  CD1 TYR A   1       7.717  26.700  31.792  0.00  0.00    -0.001 A 
ENDROOT
BRANCH   4   7
ATOM      7  OH  TYR A   1       7.237  24.731  28.770  0.00  0.00    -0.506 OA
ATOM      8  HH  TYR A   1       7.277  23.748  28.656  0.00  0.00    +0.292 HD
ENDBRANCH   4   7
BRANCH   1   9
ATOM      9  CB  TYR A   1       8.023  26.084  34.221  0.00  0.00    +0.051 C 
BRANCH   9  10
ATOM     10  CA  TYR A   1       6.642  26.001  34.884  0.00  0.00    +0.137 C 
BRANCH  10  11
ATOM     11  N   TYR A   1       5.806  27.110  34.426  0.00  0.00    -0.239 NA
ATOM     12  H   TYR A   1       6.256  27.965  34.042  0.00  0.00    +0.142 HD
ENDBRANCH  10  11
BRANCH  10  13
ATOM     13  C   TYR A   1       6.738  25.900  36.406  0.00  0.00    +0.224 C 
ATOM     14  O   TYR A   1       7.427  25.032  36.950  0.00  0.00    -0.287 OA
ENDBRANCH  10  13
ENDBRANCH   9  10
ENDBRANCH   1   9
TORSDOF 5
REMARK  Name = ../refined-set-2016/2qg2/2qg2_pocket.pdb
REMARK  245 active torsions:
REMARK  status: ('A' for Active; 'I' for Inactive)
REMARK    1  A    between atoms: _1  and  _3
REMARK    2  A    between atoms: _3  and  _4
REMARK    3  A    between atoms: _3  and  _6
REMARK    4  A    between atoms: _6  and  _7
REMARK    5  A    between atoms: _13  and  _15
REMARK    6  A    between atoms: _15  and  _16
REMARK    7  A    between atoms: _15  and  _18
REMARK    8  A    between atoms: _18  and  _19
REMARK    9  A    between atoms: _22  and  _24
REMARK   10  A    between atoms: _24  and  _25
REMARK   11  A    between atoms: _24  and  _27
REMARK   12  A    between atoms: _27  and  _28
REMARK   13  A    between atoms: _31  and  _33
REMARK   14  A    between atoms: _33  and  _34
REMARK   15  A    between atoms: _33  and  _36
REMARK   16  A    between atoms: _36  and  _37
REMARK   17  A    between atoms: _37  and  _38
REMARK   18  A    between atoms: _41  and  _43
REMARK   19  A    between atoms: _43  and  _44
REMARK   20  A    between atoms: _43  and  _46
REMARK   21  A    between atoms: _46  and  _47
REMARK   22  A    between atoms: _50  and  _52
REMARK   23  A    between atoms: _52  and  _53
REMARK   24  A    between atoms: _52  and  _55
REMARK   25  A    between atoms: _55  and  _56
REMARK   26  A    between atoms: _59  and  _61
REMARK   27  A    between atoms: _61  and  _62
REMARK   28  A    between atoms: _61  and  _64
REMARK   29  A    between atoms: _64  and  _65
REMARK   30  A    between atoms: _67  and  _69
REMARK   31  A    between atoms: _69  and  _70
REMARK   32  A    between atoms: _69  and  _72
REMARK   33  A    between atoms: _72  and  _73
REMARK   34  A    between atoms: _78  and  _80
REMARK   35  A    between atoms: _80  and  _81
REMARK   36  A    between atoms: _80  and  _83
REMARK   37  A    between atoms: _83  and  _84
REMARK   38  A    between atoms: _86  and  _88
REMARK   39  A    between atoms: _88  and  _89
REMARK   40  A    between atoms: _88  and  _91
REMARK   41  A    between atoms: _91  and  _92
REMARK   42  A    between atoms: _94  and  _96
REMARK   43  A    between atoms: _96  and  _97
REMARK   44  A    between atoms: _96  and  _99
REMARK   45  A    between atoms: _99  and  _100
REMARK   46  A    between atoms: _103  and  _105
REMARK   47  A    between atoms: _105  and  _106
REMARK   48  A    between atoms: _109  and  _111
REMARK   49  A    between atoms: _111  and  _112
REMARK   50  A    between atoms: _111  and  _114
REMARK   51  A    between atoms: _114  and  _115
REMARK   52  A    between atoms: _118  and  _120
REMARK   53  A    between atoms: _120  and  _121
REMARK   54  A    between atoms: _120  and  _123
REMARK   55  A    between atoms: _123  and  _124
REMARK   56  A    between atoms: _124  and  _125
REMARK   57  A    between atoms: _125  and  _126
REMARK   58  A    between atoms: _126  and  _127
REMARK   59  A    between atoms: _131  and  _133
REMARK   60  A    between atoms: _133  and  _134
REMARK   61  A    between atoms: _133  and  _136
REMARK   62  A    between atoms: _136  and  _137
REMARK   63  A    between atoms: _140  and  _142
REMARK   64  A    between atoms: _142  and  _143
REMARK   65  A    between atoms: _142  and  _145
REMARK   66  A    between atoms: _145  and  _146
REMARK   67  A    between atoms: _149  and  _151
REMARK   68  A    between atoms: _151  and  _152
REMARK   69  A    between atoms: _151  and  _154
REMARK   70  A    between atoms: _157  and  _159
REMARK   71  A    between atoms: _159  and  _160
REMARK   72  A    between atoms: _159  and  _162
REMARK   73  A    between atoms: _162  and  _163
REMARK   74  A    between atoms: _166  and  _168
REMARK   75  A    between atoms: _168  and  _169
REMARK   76  A    between atoms: _168  and  _171
REMARK   77  A    between atoms: _171  and  _172
REMARK   78  A    between atoms: _175  and  _177
REMARK   79  A    between atoms: _177  and  _178
REMARK   80  A    between atoms: _180  and  _182
REMARK   81  A    between atoms: _182  and  _183
REMARK   82  A    between atoms: _182  and  _185
REMARK   83  A    between atoms: _185  and  _186
REMARK   84  A    between atoms: _189  and  _191
REMARK   85  A    between atoms: _191  and  _192
REMARK   86  A    between atoms: _194  and  _196
REMARK   87  A    between atoms: _196  and  _197
REMARK   88  A    between atoms: _196  and  _199
REMARK   89  A    between atoms: _199  and  _200
REMARK   90  A    between atoms: _200  and  _201
REMARK   91  A    between atoms: _203  and  _205
REMARK   92  A    between atoms: _205  and  _206
REMARK   93  A    between atoms: _205  and  _208
REMARK   94  A    between atoms: _208  and  _209
REMARK   95  A    between atoms: _212  and  _214
REMARK   96  A    between atoms: _214  and  _215
REMARK   97  A    between atoms: _218  and  _220
REMARK   98  A    between atoms: _220  and  _221
REMARK   99  A    between atoms: _220  and  _223
REMARK  100  A    between atoms: _223  and  _224
REMARK  101  A    between atoms: _227  and  _229
REMARK  102  A    between atoms: _229  and  _230
REMARK  103  A    between atoms: _229  and  _232
REMARK  104  A    between atoms: _232  and  _233
REMARK  105  A    between atoms: _236  and  _238
REMARK  106  A    between atoms: _238  and  _239
REMARK  107  A    between atoms: _238  and  _241
REMARK  108  A    between atoms: _241  and  _242
REMARK  109  A    between atoms: _245  and  _247
REMARK  110  A    between atoms: _247  and  _248
REMARK  111  A    between atoms: _247  and  _250
REMARK  112  A    between atoms: _250  and  _251
REMARK  113  A    between atoms: _256  and  _258
REMARK  114  A    between atoms: _258  and  _259
REMARK  115  A    between atoms: _258  and  _261
REMARK  116  A    between atoms: _261  and  _262
REMARK  117  A    between atoms: _267  and  _269
REMARK  118  A    between atoms: _269  and  _270
REMARK  119  A    between atoms: _269  and  _272
REMARK  120  A    between atoms: _272  and  _273
REMARK  121  A    between atoms: _276  and  _278
REMARK  122  A    between atoms: _278  and  _279
REMARK  123  A    between atoms: _281  and  _283
REMARK  124  A    between atoms: _283  and  _284
REMARK  125  A    between atoms: _283  and  _286
REMARK  126  A    between atoms: _286  and  _287
REMARK  127  A    between atoms: _290  and  _292
REMARK  128  A    between atoms: _292  and  _293
REMARK  129  A    between atoms: _292  and  _295
REMARK  130  A    between atoms: _295  and  _296
REMARK  131  A    between atoms: _299  and  _301
REMARK  132  A    between atoms: _301  and  _302
REMARK  133  A    between atoms: _305  and  _307
REMARK  134  A    between atoms: _307  and  _308
REMARK  135  A    between atoms: _307  and  _310
REMARK  136  A    between atoms: _310  and  _311
REMARK  137  A    between atoms: _311  and  _312
REMARK  138  A    between atoms: _312  and  _313
REMARK  139  A    between atoms: _313  and  _314
REMARK  140  A    between atoms: _318  and  _320
REMARK  141  A    between atoms: _320  and  _321
REMARK  142  A    between atoms: _323  and  _325
REMARK  143  A    between atoms: _325  and  _326
REMARK  144  A    between atoms: _325  and  _328
REMARK  145  A    between atoms: _328  and  _329
REMARK  146  A    between atoms: _332  and  _334
REMARK  147  A    between atoms: _334  and  _335
REMARK  148  A    between atoms: _334  and  _337
REMARK  149  A    between atoms: _337  and  _338
REMARK  150  A    between atoms: _344  and  _346
REMARK  151  A    between atoms: _346  and  _347
REMARK  152  A    between atoms: _349  and  _351
REMARK  153  A    between atoms: _351  and  _352
REMARK  154  A    between atoms: _351  and  _354
REMARK  155  A    between atoms: _357  and  _359
REMARK  156  A    between atoms: _359  and  _360
REMARK  157  A    between atoms: _362  and  _364
REMARK  158  A    between atoms: _364  and  _365
REMARK  159  A    between atoms: _364  and  _367
REMARK  160  A    between atoms: _367  and  _368
REMARK  161  A    between atoms: _374  and  _376
REMARK  162  A    between atoms: _376  and  _377
REMARK  163  A    between atoms: _376  and  _379
REMARK  164  A    between atoms: _379  and  _380
REMARK  165  A    between atoms: _385  and  _386
REMARK  166  A    between atoms: _388  and  _390
REMARK  167  A    between atoms: _390  and  _391
REMARK  168  A    between atoms: _390  and  _393
REMARK  169  A    between atoms: _393  and  _394
REMARK  170  A    between atoms: _396  and  _398
REMARK  171  A    between atoms: _398  and  _399
REMARK  172  A    between atoms: _398  and  _401
REMARK  173  A    between atoms: _401  and  _402
REMARK  174  A    between atoms: _407  and  _408
REMARK  175  A    between atoms: _410  and  _412
REMARK  176  A    between atoms: _412  and  _413
REMARK  177  A    between atoms: _412  and  _415
REMARK  178  A    between atoms: _418  and  _420
REMARK  179  A    between atoms: _420  and  _421
REMARK  180  A    between atoms: _420  and  _423
REMARK  181  A    between atoms: _423  and  _424
REMARK  182  A    between atoms: _427  and  _429
REMARK  183  A    between atoms: _429  and  _430
REMARK  184  A    between atoms: _429  and  _432
REMARK  185  A    between atoms: _435  and  _437
REMARK  186  A    between atoms: _437  and  _438
REMARK  187  A    between atoms: _437  and  _440
REMARK  188  A    between atoms: _440  and  _441
REMARK  189  A    between atoms: _444  and  _446
REMARK  190  A    between atoms: _446  and  _447
REMARK  191  A    between atoms: _446  and  _449
REMARK  192  A    between atoms: _449  and  _450
REMARK  193  A    between atoms: _453  and  _455
REMARK  194  A    between atoms: _455  and  _456
REMARK  195  A    between atoms: _455  and  _458
REMARK  196  A    between atoms: _458  and  _459
REMARK  197  A    between atoms: _459  and  _460
REMARK  198  A    between atoms: _460  and  _461
REMARK  199  A    between atoms: _461  and  _462
REMARK  200  A    between atoms: _466  and  _468
REMARK  201  A    between atoms: _468  and  _469
REMARK  202  A    between atoms: _468  and  _471
REMARK  203  A    between atoms: _471  and  _472
REMARK  204  A    between atoms: _477  and  _479
REMARK  205  A    between atoms: _479  and  _480
REMARK  206  A    between atoms: _483  and  _485
REMARK  207  A    between atoms: _485  and  _486
REMARK  208  A    between atoms: _485  and  _488
REMARK  209  A    between atoms: _488  and  _489
REMARK  210  A    between atoms: _499  and  _501
REMARK  211  A    between atoms: _501  and  _502
REMARK  212  A    between atoms: _501  and  _504
REMARK  213  A    between atoms: _504  and  _505
REMARK  214  A    between atoms: _505  and  _506
REMARK  215  A    between atoms: _509  and  _511
REMARK  216  A    between atoms: _511  and  _512
REMARK  217  A    between atoms: _511  and  _514
REMARK  218  A    between atoms: _514  and  _515
REMARK  219  A    between atoms: _517  and  _519
REMARK  220  A    between atoms: _519  and  _520
REMARK  221  A    between atoms: _519  and  _522
REMARK  222  A    between atoms: _522  and  _523
REMARK  223  A    between atoms: _529  and  _531
REMARK  224  A    between atoms: _531  and  _532
REMARK  225  A    between atoms: _531  and  _534
REMARK  226  A    between atoms: _534  and  _535
REMARK  227  A    between atoms: _538  and  _540
REMARK  228  A    between atoms: _540  and  _541
REMARK  229  A    between atoms: _540  and  _543
REMARK  230  A    between atoms: _546  and  _548
REMARK  231  A    between atoms: _548  and  _549
REMARK  232  A    between atoms: _551  and  _553
REMARK  233  A    between atoms: _553  and  _554
REMARK  234  A    between atoms: _553  and  _556
REMARK  235  A    between atoms: _556  and  _557
REMARK  236  A    between atoms: _560  and  _562
REMARK  237  A    between atoms: _562  and  _563
REMARK  238  A    between atoms: _562  and  _565
REMARK  239  A    between atoms: _565  and  _566
REMARK  240  A    between atoms: _566  and  _567
REMARK  241  A    between atoms: _567  and  _568
REMARK  242  A    between atoms: _568  and  _569
REMARK  243  A    between atoms: _573  and  _575
REMARK  244  A    between atoms: _575  and  _576
REMARK  245  A    between atoms: _575  and  _578
REMARK                            x       y       z     vdW  Elec       q    Type
REMARK                         _______ _______ _______ _____ _____    ______ ____
ROOT
ATOM      1  C   ILE A   4      -2.324  26.908  20.119  0.00  0.00    +0.241 C 
ATOM      2  O   ILE A   4      -2.945  27.572  20.945  0.00  0.00    -0.273 OA
ATOM      3  N   THR A   5      -1.945  27.400  18.946  0.00  0.00    -0.295 N 
ATOM      4  H   THR A   5      -1.434  26.796  18.270  0.00  0.00    +0.150 HD
ENDROOT
BRANCH   3   5
ATOM      5  CA  THR A   5      -2.242  28.779  18.605  0.00  0.00    +0.176 C 
BRANCH   5   6
ATOM      6  C   THR A   5      -2.517  28.946  17.114  0.00  0.00    +0.243 C 
ATOM      7  N   LYS A   6      -3.313  29.956  16.793  0.00  0.00    -0.297 N 
ATOM      8  H   LYS A   6      -3.681  30.565  17.551  0.00  0.00    +0.150 HD
ATOM      9  O   THR A   5      -2.027  28.177  16.281  0.00  0.00    -0.273 OA
BRANCH   7  10
ATOM     10  CA  LYS A   6      -3.690  30.242  15.415  0.00  0.00    +0.149 C 
BRANCH  10  11
ATOM     11  C   LYS A   6      -3.805  31.750  15.216  0.00  0.00    +0.241 C 
ATOM     12  O   LYS A   6      -4.621  32.405  15.867  0.00  0.00    -0.273 OA
ATOM     13  N   HIS A   7      -2.969  32.289  14.331  0.00  0.00    -0.298 N 
ATOM     14  H   HIS A   7      -2.286  31.670  13.849  0.00  0.00    +0.150 HD
BRANCH  13  15
ATOM     15  CA  HIS A   7      -2.972  33.712  14.010  0.00  0.00    +0.143 C 
BRANCH  15  16
ATOM     16  C   HIS A   7      -3.675  33.820  12.657  0.00  0.00    +0.227 C 
ATOM     17  O   HIS A   7      -3.625  32.887  11.858  0.00  0.00    -0.286 OA
ENDBRANCH  15  16
BRANCH  15  18
ATOM     18  CB  HIS A   7      -1.534  34.230  13.909  0.00  0.00    +0.075 C 
BRANCH  18  19
ATOM     19  CG  HIS A   7      -1.430  35.709  13.696  0.00  0.00    +0.082 A 
ATOM     20  ND1 HIS A   7      -1.117  36.588  14.711  0.00  0.00    -0.227 NA
ATOM     21  CE1 HIS A   7      -1.069  37.816  14.228  0.00  0.00    +0.199 A 
ATOM     22  NE2 HIS A   7      -1.343  37.766  12.937  0.00  0.00    -0.221 NA
ATOM     23  CD2 HIS A   7      -1.574  36.461  12.579  0.00  0.00    +0.115 A 
ENDBRANCH  18  19
ENDBRANCH  15  18
ENDBRANCH  13  15
ENDBRANCH  10  11
BRANCH  10  24
ATOM     24  CB  LYS A   6      -5.035  29.571  15.107  0.00  0.00    +0.029 C 
BRANCH  24  25
ATOM     25  CG  LYS A   6      -5.650  29.949  13.757  0.00  0.00    +0.000 C 
BRANCH  25  26
ATOM     26  CD  LYS A   6      -4.910  29.317  12.593  0.00  0.00    -0.024 C 
BRANCH  26  27
ATOM     27  CE  LYS A   6      -5.593  29.629  11.255  0.00  0.00    -0.086 C 
BRANCH  27  28
ATOM     28  NZ  LYS A   6      -5.597  31.089  10.931  0.00  0.00    +0.380 N 
ATOM     29  HZ1 LYS A   6      -6.106  31.607  11.676  0.00  0.00    -0.089 HD
ATOM     30  HZ2 LYS A   6      -4.617  31.433  10.875  0.00  0.00    -0.089 HD
ATOM     31  HZ3 LYS A   6      -6.071  31.239  10.017  0.00  0.00    -0.089 HD
ENDBRANCH  27  28
ENDBRANCH  26  27
ENDBRANCH  25  26
ENDBRANCH  24  25
ENDBRANCH  10  24
ENDBRANCH   7  10
ENDBRANCH   5   6
BRANCH   5  32
ATOM     32  CB  THR A   5      -1.065  29.692  19.039  0.00  0.00    +0.137 C 
ATOM     33  CG2 THR A   5       0.157  29.448  18.152  0.00  0.00    +0.034 C 
BRANCH  32  34
ATOM     34  OG1 THR A   5      -1.455  31.069  18.965  0.00  0.00    -0.382 OA
ATOM     35  HG1 THR A   5      -2.226  31.225  19.566  0.00  0.00    +0.210 HD
ENDBRANCH  32  34
ENDBRANCH   5  32
ENDBRANCH   3   5
BRANCH   1  36
ATOM     36  CA  ILE A   4      -1.924  25.473  20.433  0.00  0.00    +0.149 C 
BRANCH  36  38
ATOM     37  C   VAL A   3       0.025  25.546  21.885  0.00  0.00    +0.241 C 
ATOM     38  N   ILE A   4      -1.293  25.613  21.740  0.00  0.00    -0.297 N 
ATOM     39  H   ILE A   4      -1.889  25.769  22.578  0.00  0.00    +0.150 HD
ATOM     40  O   VAL A   3       0.798  25.312  20.953  0.00  0.00    -0.273 OA
BRANCH  37  41
ATOM     41  CA  VAL A   3       0.554  25.746  23.293  0.00  0.00    +0.149 C 
BRANCH  41  44
ATOM     42  C   THR A   2       0.855  23.878  24.786  0.00  0.00    +0.243 C 
ATOM     43  O   THR A   2      -0.134  24.211  25.441  0.00  0.00    -0.273 OA
ATOM     44  N   VAL A   3       1.276  24.566  23.734  0.00  0.00    -0.297 N 
ATOM     45  H   VAL A   3       2.128  24.259  23.222  0.00  0.00    +0.150 HD
BRANCH  42  46
ATOM     46  CA  THR A   2       1.670  22.654  25.173  0.00  0.00    +0.176 C 
BRANCH  46  48
ATOM     47  C   VAL A   1       3.243  22.852  27.026  0.00  0.00    +0.238 C 
ATOM     48  N   THR A   2       1.990  22.776  26.588  0.00  0.00    -0.295 N 
ATOM     49  H   THR A   2       1.213  22.805  27.279  0.00  0.00    +0.150 HD
ATOM     50  O   VAL A   1       4.227  22.791  26.288  0.00  0.00    -0.274 OA
BRANCH  47  51
ATOM     51  CA  VAL A   1       3.415  22.991  28.523  0.00  0.00    +0.145 C 
BRANCH  51  52
ATOM     52  CB  VAL A   1       3.850  24.427  28.852  0.00  0.00    +0.025 C 
ATOM     53  CG2 VAL A   1       4.022  24.588  30.378  0.00  0.00    +0.002 C 
ATOM     54  CG1 VAL A   1       2.801  25.414  28.328  0.00  0.00    +0.002 C 
ENDBRANCH  51  52
BRANCH  51  55
ATOM     55  N   VAL A   1       4.391  22.017  28.977  0.00  0.00    -0.238 NA
ATOM     56  H   VAL A   1       5.317  21.949  28.509  0.00  0.00    +0.142 HD
ENDBRANCH  51  55
ENDBRANCH  47  51
ENDBRANCH  46  48
BRANCH  46  57
ATOM     57  CB  THR A   2       0.830  21.380  24.894  0.00  0.00    +0.137 C 
ATOM     58  CG2 THR A   2       0.623  21.188  23.400  0.00  0.00    +0.034 C 
BRANCH  57  59
ATOM     59  OG1 THR A   2       1.510  20.234  25.422  0.00  0.00    -0.382 OA
ATOM     60  HG1 THR A   2       2.395  20.148  24.987  0.00  0.00    +0.210 HD
ENDBRANCH  57  59
ENDBRANCH  46  57
ENDBRANCH  42  46
ENDBRANCH  41  44
BRANCH  41  61
ATOM     61  CB  VAL A   3       1.455  26.996  23.307  0.00  0.00    +0.027 C 
ATOM     62  CG2 VAL A   3       1.948  27.271  24.738  0.00  0.00    +0.002 C 
ATOM     63  CG1 VAL A   3       0.686  28.194  22.765  0.00  0.00    +0.002 C 
ENDBRANCH  41  61
ENDBRANCH  37  41
ENDBRANCH  36  38
BRANCH  36  64
ATOM     64  CB  ILE A   4      -3.175  24.574  20.486  0.00  0.00    +0.027 C 
ATOM     65  CG2 ILE A   4      -3.664  24.285  19.068  0.00  0.00    +0.002 C 
BRANCH  64  66
ATOM     66  CG1 ILE A   4      -2.849  23.255  21.198  0.00  0.00    +0.002 C 
ATOM     67  CD1 ILE A   4      -1.720  22.476  20.568  0.00  0.00    +0.000 C 
ENDBRANCH  64  66
ENDBRANCH  36  64
ENDBRANCH   1  36
TORSDOF 29
REMARK  Name = ../refined-set-2016/2qg2/2qg2_pocket.pdb
REMARK  245 active torsions:
REMARK  status: ('A' for Active; 'I' for Inactive)
REMARK    1  A    between atoms: _1  and  _3
REMARK    2  A    between atoms: _3  and  _4
REMARK    3  A    between atoms: _3  and  _6
REMARK    4  A    between atoms: _6  and  _7
REMARK    5  A    between atoms: _13  and  _15
REMARK    6  A    between atoms: _15  and  _16
REMARK    7  A    between atoms: _15  and  _18
REMARK    8  A    between atoms: _18  and  _19
REMARK    9  A    between atoms: _22  and  _24
REMARK   10  A    between atoms: _24  and  _25
REMARK   11  A    between atoms: _24  and  _27
REMARK   12  A    between atoms: _27  and  _28
REMARK   13  A    between atoms: _31  and  _33
REMARK   14  A    between atoms: _33  and  _34
REMARK   15  A    between atoms: _33  and  _36
REMARK   16  A    between atoms: _36  and  _37
REMARK   17  A    between atoms: _37  and  _38
REMARK   18  A    between atoms: _41  and  _43
REMARK   19  A    between atoms: _43  and  _44
REMARK   20  A    between atoms: _43  and  _46
REMARK   21  A    between atoms: _46  and  _47
REMARK   22  A    between atoms: _50  and  _52
REMARK   23  A    between atoms: _52  and  _53
REMARK   24  A    between atoms: _52  and  _55
REMARK   25  A    between atoms: _55  and  _56
REMARK   26  A    between atoms: _59  and  _61
REMARK   27  A    between atoms: _61  and  _62
REMARK   28  A    between atoms: _61  and  _64
REMARK   29  A    between atoms: _64  and  _65
REMARK   30  A    between atoms: _67  and  _69
REMARK   31  A    between atoms: _69  and  _70
REMARK   32  A    between atoms: _69  and  _72
REMARK   33  A    between atoms: _72  and  _73
REMARK   34  A    between atoms: _78  and  _80
REMARK   35  A    between atoms: _80  and  _81
REMARK   36  A    between atoms: _80  and  _83
REMARK   37  A    between atoms: _83  and  _84
REMARK   38  A    between atoms: _86  and  _88
REMARK   39  A    between atoms: _88  and  _89
REMARK   40  A    between atoms: _88  and  _91
REMARK   41  A    between atoms: _91  and  _92
REMARK   42  A    between atoms: _94  and  _96
REMARK   43  A    between atoms: _96  and  _97
REMARK   44  A    between atoms: _96  and  _99
REMARK   45  A    between atoms: _99  and  _100
REMARK   46  A    between atoms: _103  and  _105
REMARK   47  A    between atoms: _105  and  _106
REMARK   48  A    between atoms: _109  and  _111
REMARK   49  A    between atoms: _111  and  _112
REMARK   50  A    between atoms: _111  and  _114
REMARK   51  A    between atoms: _114  and  _115
REMARK   52  A    between atoms: _118  and  _120
REMARK   53  A    between atoms: _120  and  _121
REMARK   54  A    between atoms: _120  and  _123
REMARK   55  A    between atoms: _123  and  _124
REMARK   56  A    between atoms: _124  and  _125
REMARK   57  A    between atoms: _125  and  _126
REMARK   58  A    between atoms: _126  and  _127
REMARK   59  A    between atoms: _131  and  _133
REMARK   60  A    between atoms: _133  and  _134
REMARK   61  A    between atoms: _133  and  _136
REMARK   62  A    between atoms: _136  and  _137
REMARK   63  A    between atoms: _140  and  _142
REMARK   64  A    between atoms: _142  and  _143
REMARK   65  A    between atoms: _142  and  _145
REMARK   66  A    between atoms: _145  and  _146
REMARK   67  A    between atoms: _149  and  _151
REMARK   68  A    between atoms: _151  and  _152
REMARK   69  A    between atoms: _151  and  _154
REMARK   70  A    between atoms: _157  and  _159
REMARK   71  A    between atoms: _159  and  _160
REMARK   72  A    between atoms: _159  and  _162
REMARK   73  A    between atoms: _162  and  _163
REMARK   74  A    between atoms: _166  and  _168
REMARK   75  A    between atoms: _168  and  _169
REMARK   76  A    between atoms: _168  and  _171
REMARK   77  A    between atoms: _171  and  _172
REMARK   78  A    between atoms: _175  and  _177
REMARK   79  A    between atoms: _177  and  _178
REMARK   80  A    between atoms: _180  and  _182
REMARK   81  A    between atoms: _182  and  _183
REMARK   82  A    between atoms: _182  and  _185
REMARK   83  A    between atoms: _185  and  _186
REMARK   84  A    between atoms: _189  and  _191
REMARK   85  A    between atoms: _191  and  _192
REMARK   86  A    between atoms: _194  and  _196
REMARK   87  A    between atoms: _196  and  _197
REMARK   88  A    between atoms: _196  and  _199
REMARK   89  A    between atoms: _199  and  _200
REMARK   90  A    between atoms: _200  and  _201
REMARK   91  A    between atoms: _203  and  _205
REMARK   92  A    between atoms: _205  and  _206
REMARK   93  A    between atoms: _205  and  _208
REMARK   94  A    between atoms: _208  and  _209
REMARK   95  A    between atoms: _212  and  _214
REMARK   96  A    between atoms: _214  and  _215
REMARK   97  A    between atoms: _218  and  _220
REMARK   98  A    between atoms: _220  and  _221
REMARK   99  A    between atoms: _220  and  _223
REMARK  100  A    between atoms: _223  and  _224
REMARK  101  A    between atoms: _227  and  _229
REMARK  102  A    between atoms: _229  and  _230
REMARK  103  A    between atoms: _229  and  _232
REMARK  104  A    between atoms: _232  and  _233
REMARK  105  A    between atoms: _236  and  _238
REMARK  106  A    between atoms: _238  and  _239
REMARK  107  A    between atoms: _238  and  _241
REMARK  108  A    between atoms: _241  and  _242
REMARK  109  A    between atoms: _245  and  _247
REMARK  110  A    between atoms: _247  and  _248
REMARK  111  A    between atoms: _247  and  _250
REMARK  112  A    between atoms: _250  and  _251
REMARK  113  A    between atoms: _256  and  _258
REMARK  114  A    between atoms: _258  and  _259
REMARK  115  A    between atoms: _258  and  _261
REMARK  116  A    between atoms: _261  and  _262
REMARK  117  A    between atoms: _267  and  _269
REMARK  118  A    between atoms: _269  and  _270
REMARK  119  A    between atoms: _269  and  _272
REMARK  120  A    between atoms: _272  and  _273
REMARK  121  A    between atoms: _276  and  _278
REMARK  122  A    between atoms: _278  and  _279
REMARK  123  A    between atoms: _281  and  _283
REMARK  124  A    between atoms: _283  and  _284
REMARK  125  A    between atoms: _283  and  _286
REMARK  126  A    between atoms: _286  and  _287
REMARK  127  A    between atoms: _290  and  _292
REMARK  128  A    between atoms: _292  and  _293
REMARK  129  A    between atoms: _292  and  _295
REMARK  130  A    between atoms: _295  and  _296
REMARK  131  A    between atoms: _299  and  _301
REMARK  132  A    between atoms: _301  and  _302
REMARK  133  A    between atoms: _305  and  _307
REMARK  134  A    between atoms: _307  and  _308
REMARK  135  A    between atoms: _307  and  _310
REMARK  136  A    between atoms: _310  and  _311
REMARK  137  A    between atoms: _311  and  _312
REMARK  138  A    between atoms: _312  and  _313
REMARK  139  A    between atoms: _313  and  _314
REMARK  140  A    between atoms: _318  and  _320
REMARK  141  A    between atoms: _320  and  _321
REMARK  142  A    between atoms: _323  and  _325
REMARK  143  A    between atoms: _325  and  _326
REMARK  144  A    between atoms: _325  and  _328
REMARK  145  A    between atoms: _328  and  _329
REMARK  146  A    between atoms: _332  and  _334
REMARK  147  A    between atoms: _334  and  _335
REMARK  148  A    between atoms: _334  and  _337
REMARK  149  A    between atoms: _337  and  _338
REMARK  150  A    between atoms: _344  and  _346
REMARK  151  A    between atoms: _346  and  _347
REMARK  152  A    between atoms: _349  and  _351
REMARK  153  A    between atoms: _351  and  _352
REMARK  154  A    between atoms: _351  and  _354
REMARK  155  A    between atoms: _357  and  _359
REMARK  156  A    between atoms: _359  and  _360
REMARK  157  A    between atoms: _362  and  _364
REMARK  158  A    between atoms: _364  and  _365
REMARK  159  A    between atoms: _364  and  _367
REMARK  160  A    between atoms: _367  and  _368
REMARK  161  A    between atoms: _374  and  _376
REMARK  162  A    between atoms: _376  and  _377
REMARK  163  A    between atoms: _376  and  _379
REMARK  164  A    between atoms: _379  and  _380
REMARK  165  A    between atoms: _385  and  _386
REMARK  166  A    between atoms: _388  and  _390
REMARK  167  A    between atoms: _390  and  _391
REMARK  168  A    between atoms: _390  and  _393
REMARK  169  A    between atoms: _393  and  _394
REMARK  170  A    between atoms: _396  and  _398
REMARK  171  A    between atoms: _398  and  _399
REMARK  172  A    between atoms: _398  and  _401
REMARK  173  A    between atoms: _401  and  _402
REMARK  174  A    between atoms: _407  and  _408
REMARK  175  A    between atoms: _410  and  _412
REMARK  176  A    between atoms: _412  and  _413
REMARK  177  A    between atoms: _412  and  _415
REMARK  178  A    between atoms: _418  and  _420
REMARK  179  A    between atoms: _420  and  _421
REMARK  180  A    between atoms: _420  and  _423
REMARK  181  A    between atoms: _423  and  _424
REMARK  182  A    between atoms: _427  and  _429
REMARK  183  A    between atoms: _429  and  _430
REMARK  184  A    between atoms: _429  and  _432
REMARK  185  A    between atoms: _435  and  _437
REMARK  186  A    between atoms: _437  and  _438
REMARK  187  A    between atoms: _437  and  _440
REMARK  188  A    between atoms: _440  and  _441
REMARK  189  A    between atoms: _444  and  _446
REMARK  190  A    between atoms: _446  and  _447
REMARK  191  A    between atoms: _446  and  _449
REMARK  192  A    between atoms: _449  and  _450
REMARK  193  A    between atoms: _453  and  _455
REMARK  194  A    between atoms: _455  and  _456
REMARK  195  A    between atoms: _455  and  _458
REMARK  196  A    between atoms: _458  and  _459
REMARK  197  A    between atoms: _459  and  _460
REMARK  198  A    between atoms: _460  and  _461
REMARK  199  A    between atoms: _461  and  _462
REMARK  200  A    between atoms: _466  and  _468
REMARK  201  A    between atoms: _468  and  _469
REMARK  202  A    between atoms: _468  and  _471
REMARK  203  A    between atoms: _471  and  _472
REMARK  204  A    between atoms: _477  and  _479
REMARK  205  A    between atoms: _479  and  _480
REMARK  206  A    between atoms: _483  and  _485
REMARK  207  A    between atoms: _485  and  _486
REMARK  208  A    between atoms: _485  and  _488
REMARK  209  A    between atoms: _488  and  _489
REMARK  210  A    between atoms: _499  and  _501
REMARK  211  A    between atoms: _501  and  _502
REMARK  212  A    between atoms: _501  and  _504
REMARK  213  A    between atoms: _504  and  _505
REMARK  214  A    between atoms: _505  and  _506
REMARK  215  A    between atoms: _509  and  _511
REMARK  216  A    between atoms: _511  and  _512
REMARK  217  A    between atoms: _511  and  _514
REMARK  218  A    between atoms: _514  and  _515
REMARK  219  A    between atoms: _517  and  _519
REMARK  220  A    between atoms: _519  and  _520
REMARK  221  A    between atoms: _519  and  _522
REMARK  222  A    between atoms: _522  and  _523
REMARK  223  A    between atoms: _529  and  _531
REMARK  224  A    between atoms: _531  and  _532
REMARK  225  A    between atoms: _531  and  _534
REMARK  226  A    between atoms: _534  and  _535
REMARK  227  A    between atoms: _538  and  _540
REMARK  228  A    between atoms: _540  and  _541
REMARK  229  A    between atoms: _540  and  _543
REMARK  230  A    between atoms: _546  and  _548
REMARK  231  A    between atoms: _548  and  _549
REMARK  232  A    between atoms: _551  and  _553
REMARK  233  A    between atoms: _553  and  _554
REMARK  234  A    between atoms: _553  and  _556
REMARK  235  A    between atoms: _556  and  _557
REMARK  236  A    between atoms: _560  and  _562
REMARK  237  A    between atoms: _562  and  _563
REMARK  238  A    between atoms: _562  and  _565
REMARK  239  A    between atoms: _565  and  _566
REMARK  240  A    between atoms: _566  and  _567
REMARK  241  A    between atoms: _567  and  _568
REMARK  242  A    between atoms: _568  and  _569
REMARK  243  A    between atoms: _573  and  _575
REMARK  244  A    between atoms: _575  and  _576
REMARK  245  A    between atoms: _575  and  _578
REMARK                            x       y       z     vdW  Elec       q    Type
REMARK                         _______ _______ _______ _____ _____    ______ ____
ROOT
ATOM      1  CA  TRP A   2       4.361  24.428  20.464  0.00  0.00    +0.153 C 
ENDROOT
BRANCH   1   3
ATOM      2  C   ALA A   1       2.829  23.414  18.824  0.00  0.00    +0.238 C 
ATOM      3  N   TRP A   2       3.041  24.204  19.875  0.00  0.00    -0.297 N 
ATOM      4  H   TRP A   2       2.224  24.688  20.300  0.00  0.00    +0.150 HD
ATOM      5  O   ALA A   1       3.736  22.841  18.217  0.00  0.00    -0.274 OA
BRANCH   2   6
ATOM      6  CA  ALA A   1       1.379  23.280  18.358  0.00  0.00    +0.145 C 
ATOM      7  CB  ALA A   1       0.989  21.804  18.290  0.00  0.00    +0.028 C 
BRANCH   6   8
ATOM      8  N   ALA A   1       1.316  23.893  17.037  0.00  0.00    -0.238 NA
ATOM      9  H   ALA A   1       1.943  23.533  16.290  0.00  0.00    +0.142 HD
ENDBRANCH   6   8
ENDBRANCH   2   6
ENDBRANCH   1   3
BRANCH   1  10
ATOM     10  C   TRP A   2       4.375  23.594  21.732  0.00  0.00    +0.241 C 
ATOM     11  O   TRP A   2       3.337  23.425  22.370  0.00  0.00    -0.273 OA
ATOM     12  N   GLU A   3       5.538  23.086  22.117  0.00  0.00    -0.297 N 
ATOM     13  H   GLU A   3       6.399  23.274  21.565  0.00  0.00    +0.150 HD
BRANCH  12  14
ATOM     14  CA  GLU A   3       5.603  22.265  23.315  0.00  0.00    +0.149 C 
BRANCH  14  15
ATOM     15  C   GLU A   3       6.982  22.231  23.941  0.00  0.00    +0.241 C 
ATOM     16  N   SER A   4       7.026  22.184  25.269  0.00  0.00    -0.296 N 
ATOM     17  H   SER A   4       6.141  22.199  25.816  0.00  0.00    +0.150 HD
ATOM     18  O   GLU A   3       7.991  22.251  23.236  0.00  0.00    -0.273 OA
BRANCH  16  19
ATOM     19  CA  SER A   4       8.302  22.112  25.962  0.00  0.00    +0.166 C 
BRANCH  19  20
ATOM     20  C   SER A   4       8.192  21.655  27.410  0.00  0.00    +0.229 C 
ATOM     21  O   SER A   4       7.295  22.072  28.146  0.00  0.00    -0.286 OA
ENDBRANCH  19  20
BRANCH  19  22
ATOM     22  CB  SER A   4       9.019  23.465  25.924  0.00  0.00    +0.165 C 
BRANCH  22  23
ATOM     23  OG  SER A   4      10.280  23.380  26.575  0.00  0.00    -0.380 OA
ATOM     24  H   SER A   4      10.842  22.705  26.117  0.00  0.00    +0.211 HD
ENDBRANCH  22  23
ENDBRANCH  19  22
ENDBRANCH  16  19
ENDBRANCH  14  15
BRANCH  14  25
ATOM     25  CB  GLU A   3       5.172  20.837  22.980  0.00  0.00    +0.041 C 
BRANCH  25  26
ATOM     26  CG  GLU A   3       4.966  19.950  24.192  0.00  0.00    +0.116 C 
BRANCH  26  27
ATOM     27  CD  GLU A   3       4.257  18.653  23.836  0.00  0.00    +0.365 C 
ATOM     28  OE2 GLU A   3       3.101  18.468  24.267  0.00  0.00    -0.246 OA
ATOM     29  OE1 GLU A   3       4.854  17.825  23.116  0.00  0.00    -0.246 OA
ENDBRANCH  26  27
ENDBRANCH  25  26
ENDBRANCH  14  25
ENDBRANCH  12  14
ENDBRANCH   1  10
BRANCH   1  30
ATOM     30  CB  TRP A   2       4.531  25.913  20.817  0.00  0.00    +0.057 C 
BRANCH  30  31
ATOM     31  CG  TRP A   2       5.793  26.281  21.573  0.00  0.00    -0.002 A 
ATOM     32  CD2 TRP A   2       5.990  26.229  22.993  0.00  0.00    +0.013 A 
ATOM     33  CE3 TRP A   2       5.208  25.787  24.066  0.00  0.00    +0.001 A 
ATOM     34  CZ3 TRP A   2       5.719  25.894  25.353  0.00  0.00    +0.000 A 
ATOM     35  CH2 TRP A   2       6.991  26.432  25.585  0.00  0.00    +0.001 A 
ATOM     36  CZ2 TRP A   2       7.781  26.872  24.554  0.00  0.00    +0.017 A 
ATOM     37  CE2 TRP A   2       7.268  26.764  23.259  0.00  0.00    +0.056 A 
ATOM     38  NE1 TRP A   2       7.824  27.120  22.058  0.00  0.00    -0.352 N 
ATOM     39  HE1 TRP A   2       8.764  27.546  21.930  0.00  0.00    +0.166 HD
ATOM     40  CD1 TRP A   2       6.939  26.824  21.050  0.00  0.00    +0.068 A 
ENDBRANCH  30  31
ENDBRANCH   1  30
TORSDOF 15
REMARK  Name = ../refined-set-2016/2qg2/2qg2_pocket.pdb
REMARK  245 active torsions:
REMARK  status: ('A' for Active; 'I' for Inactive)
REMARK    1  A    between atoms: _1  and  _3
REMARK    2  A    between atoms: _3  and  _4
REMARK    3  A    between atoms: _3  and  _6
REMARK    4  A    between atoms: _6  and  _7
REMARK    5  A    between atoms: _13  and  _15
REMARK    6  A    between atoms: _15  and  _16
REMARK    7  A    between atoms: _15  and  _18
REMARK    8  A    between atoms: _18  and  _19
REMARK    9  A    between atoms: _22  and  _24
REMARK   10  A    between atoms: _24  and  _25
REMARK   11  A    between atoms: _24  and  _27
REMARK   12  A    between atoms: _27  and  _28
REMARK   13  A    between atoms: _31  and  _33
REMARK   14  A    between atoms: _33  and  _34
REMARK   15  A    between atoms: _33  and  _36
REMARK   16  A    between atoms: _36  and  _37
REMARK   17  A    between atoms: _37  and  _38
REMARK   18  A    between atoms: _41  and  _43
REMARK   19  A    between atoms: _43  and  _44
REMARK   20  A    between atoms: _43  and  _46
REMARK   21  A    between atoms: _46  and  _47
REMARK   22  A    between atoms: _50  and  _52
REMARK   23  A    between atoms: _52  and  _53
REMARK   24  A    between atoms: _52  and  _55
REMARK   25  A    between atoms: _55  and  _56
REMARK   26  A    between atoms: _59  and  _61
REMARK   27  A    between atoms: _61  and  _62
REMARK   28  A    between atoms: _61  and  _64
REMARK   29  A    between atoms: _64  and  _65
REMARK   30  A    between atoms: _67  and  _69
REMARK   31  A    between atoms: _69  and  _70
REMARK   32  A    between atoms: _69  and  _72
REMARK   33  A    between atoms: _72  and  _73
REMARK   34  A    between atoms: _78  and  _80
REMARK   35  A    between atoms: _80  and  _81
REMARK   36  A    between atoms: _80  and  _83
REMARK   37  A    between atoms: _83  and  _84
REMARK   38  A    between atoms: _86  and  _88
REMARK   39  A    between atoms: _88  and  _89
REMARK   40  A    between atoms: _88  and  _91
REMARK   41  A    between atoms: _91  and  _92
REMARK   42  A    between atoms: _94  and  _96
REMARK   43  A    between atoms: _96  and  _97
REMARK   44  A    between atoms: _96  and  _99
REMARK   45  A    between atoms: _99  and  _100
REMARK   46  A    between atoms: _103  and  _105
REMARK   47  A    between atoms: _105  and  _106
REMARK   48  A    between atoms: _109  and  _111
REMARK   49  A    between atoms: _111  and  _112
REMARK   50  A    between atoms: _111  and  _114
REMARK   51  A    between atoms: _114  and  _115
REMARK   52  A    between atoms: _118  and  _120
REMARK   53  A    between atoms: _120  and  _121
REMARK   54  A    between atoms: _120  and  _123
REMARK   55  A    between atoms: _123  and  _124
REMARK   56  A    between atoms: _124  and  _125
REMARK   57  A    between atoms: _125  and  _126
REMARK   58  A    between atoms: _126  and  _127
REMARK   59  A    between atoms: _131  and  _133
REMARK   60  A    between atoms: _133  and  _134
REMARK   61  A    between atoms: _133  and  _136
REMARK   62  A    between atoms: _136  and  _137
REMARK   63  A    between atoms: _140  and  _142
REMARK   64  A    between atoms: _142  and  _143
REMARK   65  A    between atoms: _142  and  _145
REMARK   66  A    between atoms: _145  and  _146
REMARK   67  A    between atoms: _149  and  _151
REMARK   68  A    between atoms: _151  and  _152
REMARK   69  A    between atoms: _151  and  _154
REMARK   70  A    between atoms: _157  and  _159
REMARK   71  A    between atoms: _159  and  _160
REMARK   72  A    between atoms: _159  and  _162
REMARK   73  A    between atoms: _162  and  _163
REMARK   74  A    between atoms: _166  and  _168
REMARK   75  A    between atoms: _168  and  _169
REMARK   76  A    between atoms: _168  and  _171
REMARK   77  A    between atoms: _171  and  _172
REMARK   78  A    between atoms: _175  and  _177
REMARK   79  A    between atoms: _177  and  _178
REMARK   80  A    between atoms: _180  and  _182
REMARK   81  A    between atoms: _182  and  _183
REMARK   82  A    between atoms: _182  and  _185
REMARK   83  A    between atoms: _185  and  _186
REMARK   84  A    between atoms: _189  and  _191
REMARK   85  A    between atoms: _191  and  _192
REMARK   86  A    between atoms: _194  and  _196
REMARK   87  A    between atoms: _196  and  _197
REMARK   88  A    between atoms: _196  and  _199
REMARK   89  A    between atoms: _199  and  _200
REMARK   90  A    between atoms: _200  and  _201
REMARK   91  A    between atoms: _203  and  _205
REMARK   92  A    between atoms: _205  and  _206
REMARK   93  A    between atoms: _205  and  _208
REMARK   94  A    between atoms: _208  and  _209
REMARK   95  A    between atoms: _212  and  _214
REMARK   96  A    between atoms: _214  and  _215
REMARK   97  A    between atoms: _218  and  _220
REMARK   98  A    between atoms: _220  and  _221
REMARK   99  A    between atoms: _220  and  _223
REMARK  100  A    between atoms: _223  and  _224
REMARK  101  A    between atoms: _227  and  _229
REMARK  102  A    between atoms: _229  and  _230
REMARK  103  A    between atoms: _229  and  _232
REMARK  104  A    between atoms: _232  and  _233
REMARK  105  A    between atoms: _236  and  _238
REMARK  106  A    between atoms: _238  and  _239
REMARK  107  A    between atoms: _238  and  _241
REMARK  108  A    between atoms: _241  and  _242
REMARK  109  A    between atoms: _245  and  _247
REMARK  110  A    between atoms: _247  and  _248
REMARK  111  A    between atoms: _247  and  _250
REMARK  112  A    between atoms: _250  and  _251
REMARK  113  A    between atoms: _256  and  _258
REMARK  114  A    between atoms: _258  and  _259
REMARK  115  A    between atoms: _258  and  _261
REMARK  116  A    between atoms: _261  and  _262
REMARK  117  A    between atoms: _267  and  _269
REMARK  118  A    between atoms: _269  and  _270
REMARK  119  A    between atoms: _269  and  _272
REMARK  120  A    between atoms: _272  and  _273
REMARK  121  A    between atoms: _276  and  _278
REMARK  122  A    between atoms: _278  and  _279
REMARK  123  A    between atoms: _281  and  _283
REMARK  124  A    between atoms: _283  and  _284
REMARK  125  A    between atoms: _283  and  _286
REMARK  126  A    between atoms: _286  and  _287
REMARK  127  A    between atoms: _290  and  _292
REMARK  128  A    between atoms: _292  and  _293
REMARK  129  A    between atoms: _292  and  _295
REMARK  130  A    between atoms: _295  and  _296
REMARK  131  A    between atoms: _299  and  _301
REMARK  132  A    between atoms: _301  and  _302
REMARK  133  A    between atoms: _305  and  _307
REMARK  134  A    between atoms: _307  and  _308
REMARK  135  A    between atoms: _307  and  _310
REMARK  136  A    between atoms: _310  and  _311
REMARK  137  A    between atoms: _311  and  _312
REMARK  138  A    between atoms: _312  and  _313
REMARK  139  A    between atoms: _313  and  _314
REMARK  140  A    between atoms: _318  and  _320
REMARK  141  A    between atoms: _320  and  _321
REMARK  142  A    between atoms: _323  and  _325
REMARK  143  A    between atoms: _325  and  _326
REMARK  144  A    between atoms: _325  and  _328
REMARK  145  A    between atoms: _328  and  _329
REMARK  146  A    between atoms: _332  and  _334
REMARK  147  A    between atoms: _334  and  _335
REMARK  148  A    between atoms: _334  and  _337
REMARK  149  A    between atoms: _337  and  _338
REMARK  150  A    between atoms: _344  and  _346
REMARK  151  A    between atoms: _346  and  _347
REMARK  152  A    between atoms: _349  and  _351
REMARK  153  A    between atoms: _351  and  _352
REMARK  154  A    between atoms: _351  and  _354
REMARK  155  A    between atoms: _357  and  _359
REMARK  156  A    between atoms: _359  and  _360
REMARK  157  A    between atoms: _362  and  _364
REMARK  158  A    between atoms: _364  and  _365
REMARK  159  A    between atoms: _364  and  _367
REMARK  160  A    between atoms: _367  and  _368
REMARK  161  A    between atoms: _374  and  _376
REMARK  162  A    between atoms: _376  and  _377
REMARK  163  A    between atoms: _376  and  _379
REMARK  164  A    between atoms: _379  and  _380
REMARK  165  A    between atoms: _385  and  _386
REMARK  166  A    between atoms: _388  and  _390
REMARK  167  A    between atoms: _390  and  _391
REMARK  168  A    between atoms: _390  and  _393
REMARK  169  A    between atoms: _393  and  _394
REMARK  170  A    between atoms: _396  and  _398
REMARK  171  A    between atoms: _398  and  _399
REMARK  172  A    between atoms: _398  and  _401
REMARK  173  A    between atoms: _401  and  _402
REMARK  174  A    between atoms: _407  and  _408
REMARK  175  A    between atoms: _410  and  _412
REMARK  176  A    between atoms: _412  and  _413
REMARK  177  A    between atoms: _412  and  _415
REMARK  178  A    between atoms: _418  and  _420
REMARK  179  A    between atoms: _420  and  _421
REMARK  180  A    between atoms: _420  and  _423
REMARK  181  A    between atoms: _423  and  _424
REMARK  182  A    between atoms: _427  and  _429
REMARK  183  A    between atoms: _429  and  _430
REMARK  184  A    between atoms: _429  and  _432
REMARK  185  A    between atoms: _435  and  _437
REMARK  186  A    between atoms: _437  and  _438
REMARK  187  A    between atoms: _437  and  _440
REMARK  188  A    between atoms: _440  and  _441
REMARK  189  A    between atoms: _444  and  _446
REMARK  190  A    between atoms: _446  and  _447
REMARK  191  A    between atoms: _446  and  _449
REMARK  192  A    between atoms: _449  and  _450
REMARK  193  A    between atoms: _453  and  _455
REMARK  194  A    between atoms: _455  and  _456
REMARK  195  A    between atoms: _455  and  _458
REMARK  196  A    between atoms: _458  and  _459
REMARK  197  A    between atoms: _459  and  _460
REMARK  198  A    between atoms: _460  and  _461
REMARK  199  A    between atoms: _461  and  _462
REMARK  200  A    between atoms: _466  and  _468
REMARK  201  A    between atoms: _468  and  _469
REMARK  202  A    between atoms: _468  and  _471
REMARK  203  A    between atoms: _471  and  _472
REMARK  204  A    between atoms: _477  and  _479
REMARK  205  A    between atoms: _479  and  _480
REMARK  206  A    between atoms: _483  and  _485
REMARK  207  A    between atoms: _485  and  _486
REMARK  208  A    between atoms: _485  and  _488
REMARK  209  A    between atoms: _488  and  _489
REMARK  210  A    between atoms: _499  and  _501
REMARK  211  A    between atoms: _501  and  _502
REMARK  212  A    between atoms: _501  and  _504
REMARK  213  A    between atoms: _504  and  _505
REMARK  214  A    between atoms: _505  and  _506
REMARK  215  A    between atoms: _509  and  _511
REMARK  216  A    between atoms: _511  and  _512
REMARK  217  A    between atoms: _511  and  _514
REMARK  218  A    between atoms: _514  and  _515
REMARK  219  A    between atoms: _517  and  _519
REMARK  220  A    between atoms: _519  and  _520
REMARK  221  A    between atoms: _519  and  _522
REMARK  222  A    between atoms: _522  and  _523
REMARK  223  A    between atoms: _529  and  _531
REMARK  224  A    between atoms: _531  and  _532
REMARK  225  A    between atoms: _531  and  _534
REMARK  226  A    between atoms: _534  and  _535
REMARK  227  A    between atoms: _538  and  _540
REMARK  228  A    between atoms: _540  and  _541
REMARK  229  A    between atoms: _540  and  _543
REMARK  230  A    between atoms: _546  and  _548
REMARK  231  A    between atoms: _548  and  _549
REMARK  232  A    between atoms: _551  and  _553
REMARK  233  A    between atoms: _553  and  _554
REMARK  234  A    between atoms: _553  and  _556
REMARK  235  A    between atoms: _556  and  _557
REMARK  236  A    between atoms: _560  and  _562
REMARK  237  A    between atoms: _562  and  _563
REMARK  238  A    between atoms: _562  and  _565
REMARK  239  A    between atoms: _565  and  _566
REMARK  240  A    between atoms: _566  and  _567
REMARK  241  A    between atoms: _567  and  _568
REMARK  242  A    between atoms: _568  and  _569
REMARK  243  A    between atoms: _573  and  _575
REMARK  244  A    between atoms: _575  and  _576
REMARK  245  A    between atoms: _575  and  _578
REMARK                            x       y       z     vdW  Elec       q    Type
REMARK                         _______ _______ _______ _____ _____    ______ ____
ROOT
ATOM      1  CA  THR A   2       9.198  21.701  19.507  0.00  0.00    +0.176 C 
ENDROOT
BRANCH   1   3
ATOM      2  C   PHE A   1      10.779  22.574  21.110  0.00  0.00    +0.239 C 
ATOM      3  N   THR A   2       9.538  22.200  20.832  0.00  0.00    -0.295 N 
ATOM      4  H   THR A   2       8.803  22.263  21.565  0.00  0.00    +0.150 HD
ATOM      5  O   PHE A   1      11.703  22.488  20.297  0.00  0.00    -0.274 OA
BRANCH   2   6
ATOM      6  CA  PHE A   1      11.041  23.079  22.514  0.00  0.00    +0.149 C 
BRANCH   6   7
ATOM      7  N   PHE A   1      12.472  23.030  22.741  0.00  0.00    -0.238 NA
ATOM      8  H   PHE A   1      13.115  23.195  21.941  0.00  0.00    +0.142 HD
ENDBRANCH   6   7
BRANCH   6   9
ATOM      9  CB  PHE A   1      10.484  24.500  22.722  0.00  0.00    +0.053 C 
BRANCH   9  10
ATOM     10  CG  PHE A   1      10.989  25.538  21.744  0.00  0.00    -0.020 A 
ATOM     11  CD2 PHE A   1      12.120  26.285  22.032  0.00  0.00    -0.004 A 
ATOM     12  CE2 PHE A   1      12.554  27.296  21.177  0.00  0.00    -0.000 A 
ATOM     13  CZ  PHE A   1      11.845  27.564  20.013  0.00  0.00    -0.000 A 
ATOM     14  CE1 PHE A   1      10.716  26.819  19.713  0.00  0.00    -0.000 A 
ATOM     15  CD1 PHE A   1      10.293  25.812  20.573  0.00  0.00    -0.004 A 
ENDBRANCH   9  10
ENDBRANCH   6   9
ENDBRANCH   2   6
ENDBRANCH   1   3
BRANCH   1  16
ATOM     16  C   THR A   2       8.057  22.496  18.899  0.00  0.00    +0.243 C 
ATOM     17  O   THR A   2       7.266  23.118  19.605  0.00  0.00    -0.273 OA
ATOM     18  N   VAL A   3       7.981  22.474  17.577  0.00  0.00    -0.298 N 
ATOM     19  H   VAL A   3       8.703  21.959  17.034  0.00  0.00    +0.150 HD
BRANCH  18  20
ATOM     20  CA  VAL A   3       6.911  23.154  16.870  0.00  0.00    +0.137 C 
BRANCH  20  21
ATOM     21  CB  VAL A   3       7.357  24.518  16.306  0.00  0.00    +0.026 C 
ATOM     22  CG2 VAL A   3       7.664  25.481  17.454  0.00  0.00    +0.002 C 
ATOM     23  CG1 VAL A   3       6.253  25.102  15.428  0.00  0.00    +0.002 C 
ENDBRANCH  20  21
BRANCH  20  24
ATOM     24  C   VAL A   3       6.513  22.247  15.722  0.00  0.00    +0.227 C 
ATOM     25  O   VAL A   3       7.367  21.691  15.030  0.00  0.00    -0.286 OA
ENDBRANCH  20  24
ENDBRANCH  18  20
ENDBRANCH   1  16
BRANCH   1  26
ATOM     26  CB  THR A   2       8.762  20.219  19.542  0.00  0.00    +0.137 C 
ATOM     27  CG2 THR A   2       9.863  19.331  20.152  0.00  0.00    +0.034 C 
BRANCH  26  28
ATOM     28  OG1 THR A   2       7.563  20.100  20.318  0.00  0.00    -0.382 OA
ATOM     29  HG1 THR A   2       6.849  20.648  19.906  0.00  0.00    +0.210 HD
ENDBRANCH  26  28
ENDBRANCH   1  26
TORSDOF 11
REMARK  Name = ../refined-set-2016/2qg2/2qg2_pocket.pdb
REMARK  245 active torsions:
REMARK  status: ('A' for Active; 'I' for Inactive)
REMARK    1  A    between atoms: _1  and  _3
REMARK    2  A    between atoms: _3  and  _4
REMARK    3  A    between atoms: _3  and  _6
REMARK    4  A    between atoms: _6  and  _7
REMARK    5  A    between atoms: _13  and  _15
REMARK    6  A    between atoms: _15  and  _16
REMARK    7  A    between atoms: _15  and  _18
REMARK    8  A    between atoms: _18  and  _19
REMARK    9  A    between atoms: _22  and  _24
REMARK   10  A    between atoms: _24  and  _25
REMARK   11  A    between atoms: _24  and  _27
REMARK   12  A    between atoms: _27  and  _28
REMARK   13  A    between atoms: _31  and  _33
REMARK   14  A    between atoms: _33  and  _34
REMARK   15  A    between atoms: _33  and  _36
REMARK   16  A    between atoms: _36  and  _37
REMARK   17  A    between atoms: _37  and  _38
REMARK   18  A    between atoms: _41  and  _43
REMARK   19  A    between atoms: _43  and  _44
REMARK   20  A    between atoms: _43  and  _46
REMARK   21  A    between atoms: _46  and  _47
REMARK   22  A    between atoms: _50  and  _52
REMARK   23  A    between atoms: _52  and  _53
REMARK   24  A    between atoms: _52  and  _55
REMARK   25  A    between atoms: _55  and  _56
REMARK   26  A    between atoms: _59  and  _61
REMARK   27  A    between atoms: _61  and  _62
REMARK   28  A    between atoms: _61  and  _64
REMARK   29  A    between atoms: _64  and  _65
REMARK   30  A    between atoms: _67  and  _69
REMARK   31  A    between atoms: _69  and  _70
REMARK   32  A    between atoms: _69  and  _72
REMARK   33  A    between atoms: _72  and  _73
REMARK   34  A    between atoms: _78  and  _80
REMARK   35  A    between atoms: _80  and  _81
REMARK   36  A    between atoms: _80  and  _83
REMARK   37  A    between atoms: _83  and  _84
REMARK   38  A    between atoms: _86  and  _88
REMARK   39  A    between atoms: _88  and  _89
REMARK   40  A    between atoms: _88  and  _91
REMARK   41  A    between atoms: _91  and  _92
REMARK   42  A    between atoms: _94  and  _96
REMARK   43  A    between atoms: _96  and  _97
REMARK   44  A    between atoms: _96  and  _99
REMARK   45  A    between atoms: _99  and  _100
REMARK   46  A    between atoms: _103  and  _105
REMARK   47  A    between atoms: _105  and  _106
REMARK   48  A    between atoms: _109  and  _111
REMARK   49  A    between atoms: _111  and  _112
REMARK   50  A    between atoms: _111  and  _114
REMARK   51  A    between atoms: _114  and  _115
REMARK   52  A    between atoms: _118  and  _120
REMARK   53  A    between atoms: _120  and  _121
REMARK   54  A    between atoms: _120  and  _123
REMARK   55  A    between atoms: _123  and  _124
REMARK   56  A    between atoms: _124  and  _125
REMARK   57  A    between atoms: _125  and  _126
REMARK   58  A    between atoms: _126  and  _127
REMARK   59  A    between atoms: _131  and  _133
REMARK   60  A    between atoms: _133  and  _134
REMARK   61  A    between atoms: _133  and  _136
REMARK   62  A    between atoms: _136  and  _137
REMARK   63  A    between atoms: _140  and  _142
REMARK   64  A    between atoms: _142  and  _143
REMARK   65  A    between atoms: _142  and  _145
REMARK   66  A    between atoms: _145  and  _146
REMARK   67  A    between atoms: _149  and  _151
REMARK   68  A    between atoms: _151  and  _152
REMARK   69  A    between atoms: _151  and  _154
REMARK   70  A    between atoms: _157  and  _159
REMARK   71  A    between atoms: _159  and  _160
REMARK   72  A    between atoms: _159  and  _162
REMARK   73  A    between atoms: _162  and  _163
REMARK   74  A    between atoms: _166  and  _168
REMARK   75  A    between atoms: _168  and  _169
REMARK   76  A    between atoms: _168  and  _171
REMARK   77  A    between atoms: _171  and  _172
REMARK   78  A    between atoms: _175  and  _177
REMARK   79  A    between atoms: _177  and  _178
REMARK   80  A    between atoms: _180  and  _182
REMARK   81  A    between atoms: _182  and  _183
REMARK   82  A    between atoms: _182  and  _185
REMARK   83  A    between atoms: _185  and  _186
REMARK   84  A    between atoms: _189  and  _191
REMARK   85  A    between atoms: _191  and  _192
REMARK   86  A    between atoms: _194  and  _196
REMARK   87  A    between atoms: _196  and  _197
REMARK   88  A    between atoms: _196  and  _199
REMARK   89  A    between atoms: _199  and  _200
REMARK   90  A    between atoms: _200  and  _201
REMARK   91  A    between atoms: _203  and  _205
REMARK   92  A    between atoms: _205  and  _206
REMARK   93  A    between atoms: _205  and  _208
REMARK   94  A    between atoms: _208  and  _209
REMARK   95  A    between atoms: _212  and  _214
REMARK   96  A    between atoms: _214  and  _215
REMARK   97  A    between atoms: _218  and  _220
REMARK   98  A    between atoms: _220  and  _221
REMARK   99  A    between atoms: _220  and  _223
REMARK  100  A    between atoms: _223  and  _224
REMARK  101  A    between atoms: _227  and  _229
REMARK  102  A    between atoms: _229  and  _230
REMARK  103  A    between atoms: _229  and  _232
REMARK  104  A    between atoms: _232  and  _233
REMARK  105  A    between atoms: _236  and  _238
REMARK  106  A    between atoms: _238  and  _239
REMARK  107  A    between atoms: _238  and  _241
REMARK  108  A    between atoms: _241  and  _242
REMARK  109  A    between atoms: _245  and  _247
REMARK  110  A    between atoms: _247  and  _248
REMARK  111  A    between atoms: _247  and  _250
REMARK  112  A    between atoms: _250  and  _251
REMARK  113  A    between atoms: _256  and  _258
REMARK  114  A    between atoms: _258  and  _259
REMARK  115  A    between atoms: _258  and  _261
REMARK  116  A    between atoms: _261  and  _262
REMARK  117  A    between atoms: _267  and  _269
REMARK  118  A    between atoms: _269  and  _270
REMARK  119  A    between atoms: _269  and  _272
REMARK  120  A    between atoms: _272  and  _273
REMARK  121  A    between atoms: _276  and  _278
REMARK  122  A    between atoms: _278  and  _279
REMARK  123  A    between atoms: _281  and  _283
REMARK  124  A    between atoms: _283  and  _284
REMARK  125  A    between atoms: _283  and  _286
REMARK  126  A    between atoms: _286  and  _287
REMARK  127  A    between atoms: _290  and  _292
REMARK  128  A    between atoms: _292  and  _293
REMARK  129  A    between atoms: _292  and  _295
REMARK  130  A    between atoms: _295  and  _296
REMARK  131  A    between atoms: _299  and  _301
REMARK  132  A    between atoms: _301  and  _302
REMARK  133  A    between atoms: _305  and  _307
REMARK  134  A    between atoms: _307  and  _308
REMARK  135  A    between atoms: _307  and  _310
REMARK  136  A    between atoms: _310  and  _311
REMARK  137  A    between atoms: _311  and  _312
REMARK  138  A    between atoms: _312  and  _313
REMARK  139  A    between atoms: _313  and  _314
REMARK  140  A    between atoms: _318  and  _320
REMARK  141  A    between atoms: _320  and  _321
REMARK  142  A    between atoms: _323  and  _325
REMARK  143  A    between atoms: _325  and  _326
REMARK  144  A    between atoms: _325  and  _328
REMARK  145  A    between atoms: _328  and  _329
REMARK  146  A    between atoms: _332  and  _334
REMARK  147  A    between atoms: _334  and  _335
REMARK  148  A    between atoms: _334  and  _337
REMARK  149  A    between atoms: _337  and  _338
REMARK  150  A    between atoms: _344  and  _346
REMARK  151  A    between atoms: _346  and  _347
REMARK  152  A    between atoms: _349  and  _351
REMARK  153  A    between atoms: _351  and  _352
REMARK  154  A    between atoms: _351  and  _354
REMARK  155  A    between atoms: _357  and  _359
REMARK  156  A    between atoms: _359  and  _360
REMARK  157  A    between atoms: _362  and  _364
REMARK  158  A    between atoms: _364  and  _365
REMARK  159  A    between atoms: _364  and  _367
REMARK  160  A    between atoms: _367  and  _368
REMARK  161  A    between atoms: _374  and  _376
REMARK  162  A    between atoms: _376  and  _377
REMARK  163  A    between atoms: _376  and  _379
REMARK  164  A    between atoms: _379  and  _380
REMARK  165  A    between atoms: _385  and  _386
REMARK  166  A    between atoms: _388  and  _390
REMARK  167  A    between atoms: _390  and  _391
REMARK  168  A    between atoms: _390  and  _393
REMARK  169  A    between atoms: _393  and  _394
REMARK  170  A    between atoms: _396  and  _398
REMARK  171  A    between atoms: _398  and  _399
REMARK  172  A    between atoms: _398  and  _401
REMARK  173  A    between atoms: _401  and  _402
REMARK  174  A    between atoms: _407  and  _408
REMARK  175  A    between atoms: _410  and  _412
REMARK  176  A    between atoms: _412  and  _413
REMARK  177  A    between atoms: _412  and  _415
REMARK  178  A    between atoms: _418  and  _420
REMARK  179  A    between atoms: _420  and  _421
REMARK  180  A    between atoms: _420  and  _423
REMARK  181  A    between atoms: _423  and  _424
REMARK  182  A    between atoms: _427  and  _429
REMARK  183  A    between atoms: _429  and  _430
REMARK  184  A    between atoms: _429  and  _432
REMARK  185  A    between atoms: _435  and  _437
REMARK  186  A    between atoms: _437  and  _438
REMARK  187  A    between atoms: _437  and  _440
REMARK  188  A    between atoms: _440  and  _441
REMARK  189  A    between atoms: _444  and  _446
REMARK  190  A    between atoms: _446  and  _447
REMARK  191  A    between atoms: _446  and  _449
REMARK  192  A    between atoms: _449  and  _450
REMARK  193  A    between atoms: _453  and  _455
REMARK  194  A    between atoms: _455  and  _456
REMARK  195  A    between atoms: _455  and  _458
REMARK  196  A    between atoms: _458  and  _459
REMARK  197  A    between atoms: _459  and  _460
REMARK  198  A    between atoms: _460  and  _461
REMARK  199  A    between atoms: _461  and  _462
REMARK  200  A    between atoms: _466  and  _468
REMARK  201  A    between atoms: _468  and  _469
REMARK  202  A    between atoms: _468  and  _471
REMARK  203  A    between atoms: _471  and  _472
REMARK  204  A    between atoms: _477  and  _479
REMARK  205  A    between atoms: _479  and  _480
REMARK  206  A    between atoms: _483  and  _485
REMARK  207  A    between atoms: _485  and  _486
REMARK  208  A    between atoms: _485  and  _488
REMARK  209  A    between atoms: _488  and  _489
REMARK  210  A    between atoms: _499  and  _501
REMARK  211  A    between atoms: _501  and  _502
REMARK  212  A    between atoms: _501  and  _504
REMARK  213  A    between atoms: _504  and  _505
REMARK  214  A    between atoms: _505  and  _506
REMARK  215  A    between atoms: _509  and  _511
REMARK  216  A    between atoms: _511  and  _512
REMARK  217  A    between atoms: _511  and  _514
REMARK  218  A    between atoms: _514  and  _515
REMARK  219  A    between atoms: _517  and  _519
REMARK  220  A    between atoms: _519  and  _520
REMARK  221  A    between atoms: _519  and  _522
REMARK  222  A    between atoms: _522  and  _523
REMARK  223  A    between atoms: _529  and  _531
REMARK  224  A    between atoms: _531  and  _532
REMARK  225  A    between atoms: _531  and  _534
REMARK  226  A    between atoms: _534  and  _535
REMARK  227  A    between atoms: _538  and  _540
REMARK  228  A    between atoms: _540  and  _541
REMARK  229  A    between atoms: _540  and  _543
REMARK  230  A    between atoms: _546  and  _548
REMARK  231  A    between atoms: _548  and  _549
REMARK  232  A    between atoms: _551  and  _553
REMARK  233  A    between atoms: _553  and  _554
REMARK  234  A    between atoms: _553  and  _556
REMARK  235  A    between atoms: _556  and  _557
REMARK  236  A    between atoms: _560  and  _562
REMARK  237  A    between atoms: _562  and  _563
REMARK  238  A    between atoms: _562  and  _565
REMARK  239  A    between atoms: _565  and  _566
REMARK  240  A    between atoms: _566  and  _567
REMARK  241  A    between atoms: _567  and  _568
REMARK  242  A    between atoms: _568  and  _569
REMARK  243  A    between atoms: _573  and  _575
REMARK  244  A    between atoms: _575  and  _576
REMARK  245  A    between atoms: _575  and  _578
REMARK                            x       y       z     vdW  Elec       q    Type
REMARK                         _______ _______ _______ _____ _____    ______ ____
ROOT
ATOM      1  CA  LYS A   3      -4.641  27.540  24.057  0.00  0.00    +0.149 C 
ENDROOT
BRANCH   1   4
ATOM      2  C   THR A   2      -4.750  29.735  23.011  0.00  0.00    +0.243 C 
ATOM      3  O   THR A   2      -5.562  30.165  23.834  0.00  0.00    -0.273 OA
ATOM      4  N   LYS A   3      -4.267  28.503  23.038  0.00  0.00    -0.297 N 
ATOM      5  H   LYS A   3      -3.593  28.214  22.300  0.00  0.00    +0.150 HD
BRANCH   2   6
ATOM      6  CA  THR A   2      -4.223  30.614  21.882  0.00  0.00    +0.176 C 
BRANCH   6   8
ATOM      7  C   GLY A   1      -5.316  31.567  19.950  0.00  0.00    +0.240 C 
ATOM      8  N   THR A   2      -5.253  31.424  21.267  0.00  0.00    -0.295 N 
ATOM      9  H   THR A   2      -5.955  31.902  21.868  0.00  0.00    +0.150 HD
ATOM     10  O   GLY A   1      -4.547  30.993  19.169  0.00  0.00    -0.274 OA
BRANCH   7  11
ATOM     11  CA  GLY A   1      -6.424  32.465  19.455  0.00  0.00    +0.169 C 
BRANCH  11  12
ATOM     12  N   GLY A   1      -6.662  32.405  18.029  0.00  0.00    -0.236 NA
ATOM     13  H   GLY A   1      -5.869  32.455  17.359  0.00  0.00    +0.142 HD
ENDBRANCH  11  12
ENDBRANCH   7  11
ENDBRANCH   6   8
BRANCH   6  14
ATOM     14  CB  THR A   2      -3.106  31.505  22.448  0.00  0.00    +0.137 C 
ATOM     15  CG2 THR A   2      -2.038  30.658  23.111  0.00  0.00    +0.034 C 
BRANCH  14  16
ATOM     16  OG1 THR A   2      -2.524  32.274  21.392  0.00  0.00    -0.382 OA
ATOM     17  HG1 THR A   2      -2.145  31.664  20.711  0.00  0.00    +0.210 HD
ENDBRANCH  14  16
ENDBRANCH   6  14
ENDBRANCH   2   6
ENDBRANCH   1   4
BRANCH   1  18
ATOM     18  C   LYS A   3      -3.363  27.093  24.770  0.00  0.00    +0.241 C 
ATOM     19  N   VAL A   4      -3.226  27.462  26.040  0.00  0.00    -0.298 N 
ATOM     20  H   VAL A   4      -3.959  28.049  26.486  0.00  0.00    +0.150 HD
ATOM     21  O   LYS A   3      -2.497  26.456  24.164  0.00  0.00    -0.273 OA
BRANCH  19  22
ATOM     22  CA  VAL A   4      -2.059  27.053  26.816  0.00  0.00    +0.137 C 
BRANCH  22  23
ATOM     23  CB  VAL A   4      -1.544  28.173  27.748  0.00  0.00    +0.026 C 
ATOM     24  CG2 VAL A   4      -0.352  27.663  28.542  0.00  0.00    +0.002 C 
ATOM     25  CG1 VAL A   4      -1.142  29.398  26.935  0.00  0.00    +0.002 C 
ENDBRANCH  22  23
BRANCH  22  26
ATOM     26  C   VAL A   4      -2.489  25.867  27.671  0.00  0.00    +0.227 C 
ATOM     27  O   VAL A   4      -3.317  26.007  28.575  0.00  0.00    -0.286 OA
ENDBRANCH  22  26
ENDBRANCH  19  22
ENDBRANCH   1  18
BRANCH   1  28
ATOM     28  CB  LYS A   3      -5.326  26.345  23.392  0.00  0.00    +0.029 C 
BRANCH  28  29
ATOM     29  CG  LYS A   3      -5.694  25.210  24.313  0.00  0.00    +0.000 C 
BRANCH  29  30
ATOM     30  CD  LYS A   3      -6.349  24.078  23.529  0.00  0.00    -0.024 C 
BRANCH  30  31
ATOM     31  CE  LYS A   3      -7.524  24.583  22.706  0.00  0.00    -0.086 C 
BRANCH  31  32
ATOM     32  NZ  LYS A   3      -8.187  23.468  21.946  0.00  0.00    +0.380 N 
ATOM     33  HZ1 LYS A   3      -8.537  22.754  22.616  0.00  0.00    -0.089 HD
ATOM     34  HZ2 LYS A   3      -8.983  23.850  21.397  0.00  0.00    -0.089 HD
ATOM     35  HZ3 LYS A   3      -7.497  23.031  21.301  0.00  0.00    -0.089 HD
ENDBRANCH  31  32
ENDBRANCH  30  31
ENDBRANCH  29  30
ENDBRANCH  28  29
ENDBRANCH   1  28
TORSDOF 16
REMARK  Name = ../refined-set-2016/2qg2/2qg2_pocket.pdb
REMARK  245 active torsions:
REMARK  status: ('A' for Active; 'I' for Inactive)
REMARK    1  A    between atoms: _1  and  _3
REMARK    2  A    between atoms: _3  and  _4
REMARK    3  A    between atoms: _3  and  _6
REMARK    4  A    between atoms: _6  and  _7
REMARK    5  A    between atoms: _13  and  _15
REMARK    6  A    between atoms: _15  and  _16
REMARK    7  A    between atoms: _15  and  _18
REMARK    8  A    between atoms: _18  and  _19
REMARK    9  A    between atoms: _22  and  _24
REMARK   10  A    between atoms: _24  and  _25
REMARK   11  A    between atoms: _24  and  _27
REMARK   12  A    between atoms: _27  and  _28
REMARK   13  A    between atoms: _31  and  _33
REMARK   14  A    between atoms: _33  and  _34
REMARK   15  A    between atoms: _33  and  _36
REMARK   16  A    between atoms: _36  and  _37
REMARK   17  A    between atoms: _37  and  _38
REMARK   18  A    between atoms: _41  and  _43
REMARK   19  A    between atoms: _43  and  _44
REMARK   20  A    between atoms: _43  and  _46
REMARK   21  A    between atoms: _46  and  _47
REMARK   22  A    between atoms: _50  and  _52
REMARK   23  A    between atoms: _52  and  _53
REMARK   24  A    between atoms: _52  and  _55
REMARK   25  A    between atoms: _55  and  _56
REMARK   26  A    between atoms: _59  and  _61
REMARK   27  A    between atoms: _61  and  _62
REMARK   28  A    between atoms: _61  and  _64
REMARK   29  A    between atoms: _64  and  _65
REMARK   30  A    between atoms: _67  and  _69
REMARK   31  A    between atoms: _69  and  _70
REMARK   32  A    between atoms: _69  and  _72
REMARK   33  A    between atoms: _72  and  _73
REMARK   34  A    between atoms: _78  and  _80
REMARK   35  A    between atoms: _80  and  _81
REMARK   36  A    between atoms: _80  and  _83
REMARK   37  A    between atoms: _83  and  _84
REMARK   38  A    between atoms: _86  and  _88
REMARK   39  A    between atoms: _88  and  _89
REMARK   40  A    between atoms: _88  and  _91
REMARK   41  A    between atoms: _91  and  _92
REMARK   42  A    between atoms: _94  and  _96
REMARK   43  A    between atoms: _96  and  _97
REMARK   44  A    between atoms: _96  and  _99
REMARK   45  A    between atoms: _99  and  _100
REMARK   46  A    between atoms: _103  and  _105
REMARK   47  A    between atoms: _105  and  _106
REMARK   48  A    between atoms: _109  and  _111
REMARK   49  A    between atoms: _111  and  _112
REMARK   50  A    between atoms: _111  and  _114
REMARK   51  A    between atoms: _114  and  _115
REMARK   52  A    between atoms: _118  and  _120
REMARK   53  A    between atoms: _120  and  _121
REMARK   54  A    between atoms: _120  and  _123
REMARK   55  A    between atoms: _123  and  _124
REMARK   56  A    between atoms: _124  and  _125
REMARK   57  A    between atoms: _125  and  _126
REMARK   58  A    between atoms: _126  and  _127
REMARK   59  A    between atoms: _131  and  _133
REMARK   60  A    between atoms: _133  and  _134
REMARK   61  A    between atoms: _133  and  _136
REMARK   62  A    between atoms: _136  and  _137
REMARK   63  A    between atoms: _140  and  _142
REMARK   64  A    between atoms: _142  and  _143
REMARK   65  A    between atoms: _142  and  _145
REMARK   66  A    between atoms: _145  and  _146
REMARK   67  A    between atoms: _149  and  _151
REMARK   68  A    between atoms: _151  and  _152
REMARK   69  A    between atoms: _151  and  _154
REMARK   70  A    between atoms: _157  and  _159
REMARK   71  A    between atoms: _159  and  _160
REMARK   72  A    between atoms: _159  and  _162
REMARK   73  A    between atoms: _162  and  _163
REMARK   74  A    between atoms: _166  and  _168
REMARK   75  A    between atoms: _168  and  _169
REMARK   76  A    between atoms: _168  and  _171
REMARK   77  A    between atoms: _171  and  _172
REMARK   78  A    between atoms: _175  and  _177
REMARK   79  A    between atoms: _177  and  _178
REMARK   80  A    between atoms: _180  and  _182
REMARK   81  A    between atoms: _182  and  _183
REMARK   82  A    between atoms: _182  and  _185
REMARK   83  A    between atoms: _185  and  _186
REMARK   84  A    between atoms: _189  and  _191
REMARK   85  A    between atoms: _191  and  _192
REMARK   86  A    between atoms: _194  and  _196
REMARK   87  A    between atoms: _196  and  _197
REMARK   88  A    between atoms: _196  and  _199
REMARK   89  A    between atoms: _199  and  _200
REMARK   90  A    between atoms: _200  and  _201
REMARK   91  A    between atoms: _203  and  _205
REMARK   92  A    between atoms: _205  and  _206
REMARK   93  A    between atoms: _205  and  _208
REMARK   94  A    between atoms: _208  and  _209
REMARK   95  A    between atoms: _212  and  _214
REMARK   96  A    between atoms: _214  and  _215
REMARK   97  A    between atoms: _218  and  _220
REMARK   98  A    between atoms: _220  and  _221
REMARK   99  A    between atoms: _220  and  _223
REMARK  100  A    between atoms: _223  and  _224
REMARK  101  A    between atoms: _227  and  _229
REMARK  102  A    between atoms: _229  and  _230
REMARK  103  A    between atoms: _229  and  _232
REMARK  104  A    between atoms: _232  and  _233
REMARK  105  A    between atoms: _236  and  _238
REMARK  106  A    between atoms: _238  and  _239
REMARK  107  A    between atoms: _238  and  _241
REMARK  108  A    between atoms: _241  and  _242
REMARK  109  A    between atoms: _245  and  _247
REMARK  110  A    between atoms: _247  and  _248
REMARK  111  A    between atoms: _247  and  _250
REMARK  112  A    between atoms: _250  and  _251
REMARK  113  A    between atoms: _256  and  _258
REMARK  114  A    between atoms: _258  and  _259
REMARK  115  A    between atoms: _258  and  _261
REMARK  116  A    between atoms: _261  and  _262
REMARK  117  A    between atoms: _267  and  _269
REMARK  118  A    between atoms: _269  and  _270
REMARK  119  A    between atoms: _269  and  _272
REMARK  120  A    between atoms: _272  and  _273
REMARK  121  A    between atoms: _276  and  _278
REMARK  122  A    between atoms: _278  and  _279
REMARK  123  A    between atoms: _281  and  _283
REMARK  124  A    between atoms: _283  and  _284
REMARK  125  A    between atoms: _283  and  _286
REMARK  126  A    between atoms: _286  and  _287
REMARK  127  A    between atoms: _290  and  _292
REMARK  128  A    between atoms: _292  and  _293
REMARK  129  A    between atoms: _292  and  _295
REMARK  130  A    between atoms: _295  and  _296
REMARK  131  A    between atoms: _299  and  _301
REMARK  132  A    between atoms: _301  and  _302
REMARK  133  A    between atoms: _305  and  _307
REMARK  134  A    between atoms: _307  and  _308
REMARK  135  A    between atoms: _307  and  _310
REMARK  136  A    between atoms: _310  and  _311
REMARK  137  A    between atoms: _311  and  _312
REMARK  138  A    between atoms: _312  and  _313
REMARK  139  A    between atoms: _313  and  _314
REMARK  140  A    between atoms: _318  and  _320
REMARK  141  A    between atoms: _320  and  _321
REMARK  142  A    between atoms: _323  and  _325
REMARK  143  A    between atoms: _325  and  _326
REMARK  144  A    between atoms: _325  and  _328
REMARK  145  A    between atoms: _328  and  _329
REMARK  146  A    between atoms: _332  and  _334
REMARK  147  A    between atoms: _334  and  _335
REMARK  148  A    between atoms: _334  and  _337
REMARK  149  A    between atoms: _337  and  _338
REMARK  150  A    between atoms: _344  and  _346
REMARK  151  A    between atoms: _346  and  _347
REMARK  152  A    between atoms: _349  and  _351
REMARK  153  A    between atoms: _351  and  _352
REMARK  154  A    between atoms: _351  and  _354
REMARK  155  A    between atoms: _357  and  _359
REMARK  156  A    between atoms: _359  and  _360
REMARK  157  A    between atoms: _362  and  _364
REMARK  158  A    between atoms: _364  and  _365
REMARK  159  A    between atoms: _364  and  _367
REMARK  160  A    between atoms: _367  and  _368
REMARK  161  A    between atoms: _374  and  _376
REMARK  162  A    between atoms: _376  and  _377
REMARK  163  A    between atoms: _376  and  _379
REMARK  164  A    between atoms: _379  and  _380
REMARK  165  A    between atoms: _385  and  _386
REMARK  166  A    between atoms: _388  and  _390
REMARK  167  A    between atoms: _390  and  _391
REMARK  168  A    between atoms: _390  and  _393
REMARK  169  A    between atoms: _393  and  _394
REMARK  170  A    between atoms: _396  and  _398
REMARK  171  A    between atoms: _398  and  _399
REMARK  172  A    between atoms: _398  and  _401
REMARK  173  A    between atoms: _401  and  _402
REMARK  174  A    between atoms: _407  and  _408
REMARK  175  A    between atoms: _410  and  _412
REMARK  176  A    between atoms: _412  and  _413
REMARK  177  A    between atoms: _412  and  _415
REMARK  178  A    between atoms: _418  and  _420
REMARK  179  A    between atoms: _420  and  _421
REMARK  180  A    between atoms: _420  and  _423
REMARK  181  A    between atoms: _423  and  _424
REMARK  182  A    between atoms: _427  and  _429
REMARK  183  A    between atoms: _429  and  _430
REMARK  184  A    between atoms: _429  and  _432
REMARK  185  A    between atoms: _435  and  _437
REMARK  186  A    between atoms: _437  and  _438
REMARK  187  A    between atoms: _437  and  _440
REMARK  188  A    between atoms: _440  and  _441
REMARK  189  A    between atoms: _444  and  _446
REMARK  190  A    between atoms: _446  and  _447
REMARK  191  A    between atoms: _446  and  _449
REMARK  192  A    between atoms: _449  and  _450
REMARK  193  A    between atoms: _453  and  _455
REMARK  194  A    between atoms: _455  and  _456
REMARK  195  A    between atoms: _455  and  _458
REMARK  196  A    between atoms: _458  and  _459
REMARK  197  A    between atoms: _459  and  _460
REMARK  198  A    between atoms: _460  and  _461
REMARK  199  A    between atoms: _461  and  _462
REMARK  200  A    between atoms: _466  and  _468
REMARK  201  A    between atoms: _468  and  _469
REMARK  202  A    between atoms: _468  and  _471
REMARK  203  A    between atoms: _471  and  _472
REMARK  204  A    between atoms: _477  and  _479
REMARK  205  A    between atoms: _479  and  _480
REMARK  206  A    between atoms: _483  and  _485
REMARK  207  A    between atoms: _485  and  _486
REMARK  208  A    between atoms: _485  and  _488
REMARK  209  A    between atoms: _488  and  _489
REMARK  210  A    between atoms: _499  and  _501
REMARK  211  A    between atoms: _501  and  _502
REMARK  212  A    between atoms: _501  and  _504
REMARK  213  A    between atoms: _504  and  _505
REMARK  214  A    between atoms: _505  and  _506
REMARK  215  A    between atoms: _509  and  _511
REMARK  216  A    between atoms: _511  and  _512
REMARK  217  A    between atoms: _511  and  _514
REMARK  218  A    between atoms: _514  and  _515
REMARK  219  A    between atoms: _517  and  _519
REMARK  220  A    between atoms: _519  and  _520
REMARK  221  A    between atoms: _519  and  _522
REMARK  222  A    between atoms: _522  and  _523
REMARK  223  A    between atoms: _529  and  _531
REMARK  224  A    between atoms: _531  and  _532
REMARK  225  A    between atoms: _531  and  _534
REMARK  226  A    between atoms: _534  and  _535
REMARK  227  A    between atoms: _538  and  _540
REMARK  228  A    between atoms: _540  and  _541
REMARK  229  A    between atoms: _540  and  _543
REMARK  230  A    between atoms: _546  and  _548
REMARK  231  A    between atoms: _548  and  _549
REMARK  232  A    between atoms: _551  and  _553
REMARK  233  A    between atoms: _553  and  _554
REMARK  234  A    between atoms: _553  and  _556
REMARK  235  A    between atoms: _556  and  _557
REMARK  236  A    between atoms: _560  and  _562
REMARK  237  A    between atoms: _562  and  _563
REMARK  238  A    between atoms: _562  and  _565
REMARK  239  A    between atoms: _565  and  _566
REMARK  240  A    between atoms: _566  and  _567
REMARK  241  A    between atoms: _567  and  _568
REMARK  242  A    between atoms: _568  and  _569
REMARK  243  A    between atoms: _573  and  _575
REMARK  244  A    between atoms: _575  and  _576
REMARK  245  A    between atoms: _575  and  _578
REMARK                            x       y       z     vdW  Elec       q    Type
REMARK                         _______ _______ _______ _____ _____    ______ ____
ROOT
ATOM      1  O   HOH     1      14.526  31.300  22.910  0.00  0.00    +0.000 OA
ENDROOT
TORSDOF 0
REMARK  Name = ../refined-set-2016/2qg2/2qg2_pocket.pdb
REMARK  245 active torsions:
REMARK  status: ('A' for Active; 'I' for Inactive)
REMARK    1  A    between atoms: _1  and  _3
REMARK    2  A    between atoms: _3  and  _4
REMARK    3  A    between atoms: _3  and  _6
REMARK    4  A    between atoms: _6  and  _7
REMARK    5  A    between atoms: _13  and  _15
REMARK    6  A    between atoms: _15  and  _16
REMARK    7  A    between atoms: _15  and  _18
REMARK    8  A    between atoms: _18  and  _19
REMARK    9  A    between atoms: _22  and  _24
REMARK   10  A    between atoms: _24  and  _25
REMARK   11  A    between atoms: _24  and  _27
REMARK   12  A    between atoms: _27  and  _28
REMARK   13  A    between atoms: _31  and  _33
REMARK   14  A    between atoms: _33  and  _34
REMARK   15  A    between atoms: _33  and  _36
REMARK   16  A    between atoms: _36  and  _37
REMARK   17  A    between atoms: _37  and  _38
REMARK   18  A    between atoms: _41  and  _43
REMARK   19  A    between atoms: _43  and  _44
REMARK   20  A    between atoms: _43  and  _46
REMARK   21  A    between atoms: _46  and  _47
REMARK   22  A    between atoms: _50  and  _52
REMARK   23  A    between atoms: _52  and  _53
REMARK   24  A    between atoms: _52  and  _55
REMARK   25  A    between atoms: _55  and  _56
REMARK   26  A    between atoms: _59  and  _61
REMARK   27  A    between atoms: _61  and  _62
REMARK   28  A    between atoms: _61  and  _64
REMARK   29  A    between atoms: _64  and  _65
REMARK   30  A    between atoms: _67  and  _69
REMARK   31  A    between atoms: _69  and  _70
REMARK   32  A    between atoms: _69  and  _72
REMARK   33  A    between atoms: _72  and  _73
REMARK   34  A    between atoms: _78  and  _80
REMARK   35  A    between atoms: _80  and  _81
REMARK   36  A    between atoms: _80  and  _83
REMARK   37  A    between atoms: _83  and  _84
REMARK   38  A    between atoms: _86  and  _88
REMARK   39  A    between atoms: _88  and  _89
REMARK   40  A    between atoms: _88  and  _91
REMARK   41  A    between atoms: _91  and  _92
REMARK   42  A    between atoms: _94  and  _96
REMARK   43  A    between atoms: _96  and  _97
REMARK   44  A    between atoms: _96  and  _99
REMARK   45  A    between atoms: _99  and  _100
REMARK   46  A    between atoms: _103  and  _105
REMARK   47  A    between atoms: _105  and  _106
REMARK   48  A    between atoms: _109  and  _111
REMARK   49  A    between atoms: _111  and  _112
REMARK   50  A    between atoms: _111  and  _114
REMARK   51  A    between atoms: _114  and  _115
REMARK   52  A    between atoms: _118  and  _120
REMARK   53  A    between atoms: _120  and  _121
REMARK   54  A    between atoms: _120  and  _123
REMARK   55  A    between atoms: _123  and  _124
REMARK   56  A    between atoms: _124  and  _125
REMARK   57  A    between atoms: _125  and  _126
REMARK   58  A    between atoms: _126  and  _127
REMARK   59  A    between atoms: _131  and  _133
REMARK   60  A    between atoms: _133  and  _134
REMARK   61  A    between atoms: _133  and  _136
REMARK   62  A    between atoms: _136  and  _137
REMARK   63  A    between atoms: _140  and  _142
REMARK   64  A    between atoms: _142  and  _143
REMARK   65  A    between atoms: _142  and  _145
REMARK   66  A    between atoms: _145  and  _146
REMARK   67  A    between atoms: _149  and  _151
REMARK   68  A    between atoms: _151  and  _152
REMARK   69  A    between atoms: _151  and  _154
REMARK   70  A    between atoms: _157  and  _159
REMARK   71  A    between atoms: _159  and  _160
REMARK   72  A    between atoms: _159  and  _162
REMARK   73  A    between atoms: _162  and  _163
REMARK   74  A    between atoms: _166  and  _168
REMARK   75  A    between atoms: _168  and  _169
REMARK   76  A    between atoms: _168  and  _171
REMARK   77  A    between atoms: _171  and  _172
REMARK   78  A    between atoms: _175  and  _177
REMARK   79  A    between atoms: _177  and  _178
REMARK   80  A    between atoms: _180  and  _182
REMARK   81  A    between atoms: _182  and  _183
REMARK   82  A    between atoms: _182  and  _185
REMARK   83  A    between atoms: _185  and  _186
REMARK   84  A    between atoms: _189  and  _191
REMARK   85  A    between atoms: _191  and  _192
REMARK   86  A    between atoms: _194  and  _196
REMARK   87  A    between atoms: _196  and  _197
REMARK   88  A    between atoms: _196  and  _199
REMARK   89  A    between atoms: _199  and  _200
REMARK   90  A    between atoms: _200  and  _201
REMARK   91  A    between atoms: _203  and  _205
REMARK   92  A    between atoms: _205  and  _206
REMARK   93  A    between atoms: _205  and  _208
REMARK   94  A    between atoms: _208  and  _209
REMARK   95  A    between atoms: _212  and  _214
REMARK   96  A    between atoms: _214  and  _215
REMARK   97  A    between atoms: _218  and  _220
REMARK   98  A    between atoms: _220  and  _221
REMARK   99  A    between atoms: _220  and  _223
REMARK  100  A    between atoms: _223  and  _224
REMARK  101  A    between atoms: _227  and  _229
REMARK  102  A    between atoms: _229  and  _230
REMARK  103  A    between atoms: _229  and  _232
REMARK  104  A    between atoms: _232  and  _233
REMARK  105  A    between atoms: _236  and  _238
REMARK  106  A    between atoms: _238  and  _239
REMARK  107  A    between atoms: _238  and  _241
REMARK  108  A    between atoms: _241  and  _242
REMARK  109  A    between atoms: _245  and  _247
REMARK  110  A    between atoms: _247  and  _248
REMARK  111  A    between atoms: _247  and  _250
REMARK  112  A    between atoms: _250  and  _251
REMARK  113  A    between atoms: _256  and  _258
REMARK  114  A    between atoms: _258  and  _259
REMARK  115  A    between atoms: _258  and  _261
REMARK  116  A    between atoms: _261  and  _262
REMARK  117  A    between atoms: _267  and  _269
REMARK  118  A    between atoms: _269  and  _270
REMARK  119  A    between atoms: _269  and  _272
REMARK  120  A    between atoms: _272  and  _273
REMARK  121  A    between atoms: _276  and  _278
REMARK  122  A    between atoms: _278  and  _279
REMARK  123  A    between atoms: _281  and  _283
REMARK  124  A    between atoms: _283  and  _284
REMARK  125  A    between atoms: _283  and  _286
REMARK  126  A    between atoms: _286  and  _287
REMARK  127  A    between atoms: _290  and  _292
REMARK  128  A    between atoms: _292  and  _293
REMARK  129  A    between atoms: _292  and  _295
REMARK  130  A    between atoms: _295  and  _296
REMARK  131  A    between atoms: _299  and  _301
REMARK  132  A    between atoms: _301  and  _302
REMARK  133  A    between atoms: _305  and  _307
REMARK  134  A    between atoms: _307  and  _308
REMARK  135  A    between atoms: _307  and  _310
REMARK  136  A    between atoms: _310  and  _311
REMARK  137  A    between atoms: _311  and  _312
REMARK  138  A    between atoms: _312  and  _313
REMARK  139  A    between atoms: _313  and  _314
REMARK  140  A    between atoms: _318  and  _320
REMARK  141  A    between atoms: _320  and  _321
REMARK  142  A    between atoms: _323  and  _325
REMARK  143  A    between atoms: _325  and  _326
REMARK  144  A    between atoms: _325  and  _328
REMARK  145  A    between atoms: _328  and  _329
REMARK  146  A    between atoms: _332  and  _334
REMARK  147  A    between atoms: _334  and  _335
REMARK  148  A    between atoms: _334  and  _337
REMARK  149  A    between atoms: _337  and  _338
REMARK  150  A    between atoms: _344  and  _346
REMARK  151  A    between atoms: _346  and  _347
REMARK  152  A    between atoms: _349  and  _351
REMARK  153  A    between atoms: _351  and  _352
REMARK  154  A    between atoms: _351  and  _354
REMARK  155  A    between atoms: _357  and  _359
REMARK  156  A    between atoms: _359  and  _360
REMARK  157  A    between atoms: _362  and  _364
REMARK  158  A    between atoms: _364  and  _365
REMARK  159  A    between atoms: _364  and  _367
REMARK  160  A    between atoms: _367  and  _368
REMARK  161  A    between atoms: _374  and  _376
REMARK  162  A    between atoms: _376  and  _377
REMARK  163  A    between atoms: _376  and  _379
REMARK  164  A    between atoms: _379  and  _380
REMARK  165  A    between atoms: _385  and  _386
REMARK  166  A    between atoms: _388  and  _390
REMARK  167  A    between atoms: _390  and  _391
REMARK  168  A    between atoms: _390  and  _393
REMARK  169  A    between atoms: _393  and  _394
REMARK  170  A    between atoms: _396  and  _398
REMARK  171  A    between atoms: _398  and  _399
REMARK  172  A    between atoms: _398  and  _401
REMARK  173  A    between atoms: _401  and  _402
REMARK  174  A    between atoms: _407  and  _408
REMARK  175  A    between atoms: _410  and  _412
REMARK  176  A    between atoms: _412  and  _413
REMARK  177  A    between atoms: _412  and  _415
REMARK  178  A    between atoms: _418  and  _420
REMARK  179  A    between atoms: _420  and  _421
REMARK  180  A    between atoms: _420  and  _423
REMARK  181  A    between atoms: _423  and  _424
REMARK  182  A    between atoms: _427  and  _429
REMARK  183  A    between atoms: _429  and  _430
REMARK  184  A    between atoms: _429  and  _432
REMARK  185  A    between atoms: _435  and  _437
REMARK  186  A    between atoms: _437  and  _438
REMARK  187  A    between atoms: _437  and  _440
REMARK  188  A    between atoms: _440  and  _441
REMARK  189  A    between atoms: _444  and  _446
REMARK  190  A    between atoms: _446  and  _447
REMARK  191  A    between atoms: _446  and  _449
REMARK  192  A    between atoms: _449  and  _450
REMARK  193  A    between atoms: _453  and  _455
REMARK  194  A    between atoms: _455  and  _456
REMARK  195  A    between atoms: _455  and  _458
REMARK  196  A    between atoms: _458  and  _459
REMARK  197  A    between atoms: _459  and  _460
REMARK  198  A    between atoms: _460  and  _461
REMARK  199  A    between atoms: _461  and  _462
REMARK  200  A    between atoms: _466  and  _468
REMARK  201  A    between atoms: _468  and  _469
REMARK  202  A    between atoms: _468  and  _471
REMARK  203  A    between atoms: _471  and  _472
REMARK  204  A    between atoms: _477  and  _479
REMARK  205  A    between atoms: _479  and  _480
REMARK  206  A    between atoms: _483  and  _485
REMARK  207  A    between atoms: _485  and  _486
REMARK  208  A    between atoms: _485  and  _488
REMARK  209  A    between atoms: _488  and  _489
REMARK  210  A    between atoms: _499  and  _501
REMARK  211  A    between atoms: _501  and  _502
REMARK  212  A    between atoms: _501  and  _504
REMARK  213  A    between atoms: _504  and  _505
REMARK  214  A    between atoms: _505  and  _506
REMARK  215  A    between atoms: _509  and  _511
REMARK  216  A    between atoms: _511  and  _512
REMARK  217  A    between atoms: _511  and  _514
REMARK  218  A    between atoms: _514  and  _515
REMARK  219  A    between atoms: _517  and  _519
REMARK  220  A    between atoms: _519  and  _520
REMARK  221  A    between atoms: _519  and  _522
REMARK  222  A    between atoms: _522  and  _523
REMARK  223  A    between atoms: _529  and  _531
REMARK  224  A    between atoms: _531  and  _532
REMARK  225  A    between atoms: _531  and  _534
REMARK  226  A    between atoms: _534  and  _535
REMARK  227  A    between atoms: _538  and  _540
REMARK  228  A    between atoms: _540  and  _541
REMARK  229  A    between atoms: _540  and  _543
REMARK  230  A    between atoms: _546  and  _548
REMARK  231  A    between atoms: _548  and  _549
REMARK  232  A    between atoms: _551  and  _553
REMARK  233  A    between atoms: _553  and  _554
REMARK  234  A    between atoms: _553  and  _556
REMARK  235  A    between atoms: _556  and  _557
REMARK  236  A    between atoms: _560  and  _562
REMARK  237  A    between atoms: _562  and  _563
REMARK  238  A    between atoms: _562  and  _565
REMARK  239  A    between atoms: _565  and  _566
REMARK  240  A    between atoms: _566  and  _567
REMARK  241  A    between atoms: _567  and  _568
REMARK  242  A    between atoms: _568  and  _569
REMARK  243  A    between atoms: _573  and  _575
REMARK  244  A    between atoms: _575  and  _576
REMARK  245  A    between atoms: _575  and  _578
REMARK                            x       y       z     vdW  Elec       q    Type
REMARK                         _______ _______ _______ _____ _____    ______ ____
ROOT
ATOM      1  O   HOH     1      -3.608  34.728  21.703  0.00  0.00    +0.000 OA
ENDROOT
TORSDOF 0
REMARK  Name = ../refined-set-2016/2qg2/2qg2_pocket.pdb
REMARK  245 active torsions:
REMARK  status: ('A' for Active; 'I' for Inactive)
REMARK    1  A    between atoms: _1  and  _3
REMARK    2  A    between atoms: _3  and  _4
REMARK    3  A    between atoms: _3  and  _6
REMARK    4  A    between atoms: _6  and  _7
REMARK    5  A    between atoms: _13  and  _15
REMARK    6  A    between atoms: _15  and  _16
REMARK    7  A    between atoms: _15  and  _18
REMARK    8  A    between atoms: _18  and  _19
REMARK    9  A    between atoms: _22  and  _24
REMARK   10  A    between atoms: _24  and  _25
REMARK   11  A    between atoms: _24  and  _27
REMARK   12  A    between atoms: _27  and  _28
REMARK   13  A    between atoms: _31  and  _33
REMARK   14  A    between atoms: _33  and  _34
REMARK   15  A    between atoms: _33  and  _36
REMARK   16  A    between atoms: _36  and  _37
REMARK   17  A    between atoms: _37  and  _38
REMARK   18  A    between atoms: _41  and  _43
REMARK   19  A    between atoms: _43  and  _44
REMARK   20  A    between atoms: _43  and  _46
REMARK   21  A    between atoms: _46  and  _47
REMARK   22  A    between atoms: _50  and  _52
REMARK   23  A    between atoms: _52  and  _53
REMARK   24  A    between atoms: _52  and  _55
REMARK   25  A    between atoms: _55  and  _56
REMARK   26  A    between atoms: _59  and  _61
REMARK   27  A    between atoms: _61  and  _62
REMARK   28  A    between atoms: _61  and  _64
REMARK   29  A    between atoms: _64  and  _65
REMARK   30  A    between atoms: _67  and  _69
REMARK   31  A    between atoms: _69  and  _70
REMARK   32  A    between atoms: _69  and  _72
REMARK   33  A    between atoms: _72  and  _73
REMARK   34  A    between atoms: _78  and  _80
REMARK   35  A    between atoms: _80  and  _81
REMARK   36  A    between atoms: _80  and  _83
REMARK   37  A    between atoms: _83  and  _84
REMARK   38  A    between atoms: _86  and  _88
REMARK   39  A    between atoms: _88  and  _89
REMARK   40  A    between atoms: _88  and  _91
REMARK   41  A    between atoms: _91  and  _92
REMARK   42  A    between atoms: _94  and  _96
REMARK   43  A    between atoms: _96  and  _97
REMARK   44  A    between atoms: _96  and  _99
REMARK   45  A    between atoms: _99  and  _100
REMARK   46  A    between atoms: _103  and  _105
REMARK   47  A    between atoms: _105  and  _106
REMARK   48  A    between atoms: _109  and  _111
REMARK   49  A    between atoms: _111  and  _112
REMARK   50  A    between atoms: _111  and  _114
REMARK   51  A    between atoms: _114  and  _115
REMARK   52  A    between atoms: _118  and  _120
REMARK   53  A    between atoms: _120  and  _121
REMARK   54  A    between atoms: _120  and  _123
REMARK   55  A    between atoms: _123  and  _124
REMARK   56  A    between atoms: _124  and  _125
REMARK   57  A    between atoms: _125  and  _126
REMARK   58  A    between atoms: _126  and  _127
REMARK   59  A    between atoms: _131  and  _133
REMARK   60  A    between atoms: _133  and  _134
REMARK   61  A    between atoms: _133  and  _136
REMARK   62  A    between atoms: _136  and  _137
REMARK   63  A    between atoms: _140  and  _142
REMARK   64  A    between atoms: _142  and  _143
REMARK   65  A    between atoms: _142  and  _145
REMARK   66  A    between atoms: _145  and  _146
REMARK   67  A    between atoms: _149  and  _151
REMARK   68  A    between atoms: _151  and  _152
REMARK   69  A    between atoms: _151  and  _154
REMARK   70  A    between atoms: _157  and  _159
REMARK   71  A    between atoms: _159  and  _160
REMARK   72  A    between atoms: _159  and  _162
REMARK   73  A    between atoms: _162  and  _163
REMARK   74  A    between atoms: _166  and  _168
REMARK   75  A    between atoms: _168  and  _169
REMARK   76  A    between atoms: _168  and  _171
REMARK   77  A    between atoms: _171  and  _172
REMARK   78  A    between atoms: _175  and  _177
REMARK   79  A    between atoms: _177  and  _178
REMARK   80  A    between atoms: _180  and  _182
REMARK   81  A    between atoms: _182  and  _183
REMARK   82  A    between atoms: _182  and  _185
REMARK   83  A    between atoms: _185  and  _186
REMARK   84  A    between atoms: _189  and  _191
REMARK   85  A    between atoms: _191  and  _192
REMARK   86  A    between atoms: _194  and  _196
REMARK   87  A    between atoms: _196  and  _197
REMARK   88  A    between atoms: _196  and  _199
REMARK   89  A    between atoms: _199  and  _200
REMARK   90  A    between atoms: _200  and  _201
REMARK   91  A    between atoms: _203  and  _205
REMARK   92  A    between atoms: _205  and  _206
REMARK   93  A    between atoms: _205  and  _208
REMARK   94  A    between atoms: _208  and  _209
REMARK   95  A    between atoms: _212  and  _214
REMARK   96  A    between atoms: _214  and  _215
REMARK   97  A    between atoms: _218  and  _220
REMARK   98  A    between atoms: _220  and  _221
REMARK   99  A    between atoms: _220  and  _223
REMARK  100  A    between atoms: _223  and  _224
REMARK  101  A    between atoms: _227  and  _229
REMARK  102  A    between atoms: _229  and  _230
REMARK  103  A    between atoms: _229  and  _232
REMARK  104  A    between atoms: _232  and  _233
REMARK  105  A    between atoms: _236  and  _238
REMARK  106  A    between atoms: _238  and  _239
REMARK  107  A    between atoms: _238  and  _241
REMARK  108  A    between atoms: _241  and  _242
REMARK  109  A    between atoms: _245  and  _247
REMARK  110  A    between atoms: _247  and  _248
REMARK  111  A    between atoms: _247  and  _250
REMARK  112  A    between atoms: _250  and  _251
REMARK  113  A    between atoms: _256  and  _258
REMARK  114  A    between atoms: _258  and  _259
REMARK  115  A    between atoms: _258  and  _261
REMARK  116  A    between atoms: _261  and  _262
REMARK  117  A    between atoms: _267  and  _269
REMARK  118  A    between atoms: _269  and  _270
REMARK  119  A    between atoms: _269  and  _272
REMARK  120  A    between atoms: _272  and  _273
REMARK  121  A    between atoms: _276  and  _278
REMARK  122  A    between atoms: _278  and  _279
REMARK  123  A    between atoms: _281  and  _283
REMARK  124  A    between atoms: _283  and  _284
REMARK  125  A    between atoms: _283  and  _286
REMARK  126  A    between atoms: _286  and  _287
REMARK  127  A    between atoms: _290  and  _292
REMARK  128  A    between atoms: _292  and  _293
REMARK  129  A    between atoms: _292  and  _295
REMARK  130  A    between atoms: _295  and  _296
REMARK  131  A    between atoms: _299  and  _301
REMARK  132  A    between atoms: _301  and  _302
REMARK  133  A    between atoms: _305  and  _307
REMARK  134  A    between atoms: _307  and  _308
REMARK  135  A    between atoms: _307  and  _310
REMARK  136  A    between atoms: _310  and  _311
REMARK  137  A    between atoms: _311  and  _312
REMARK  138  A    between atoms: _312  and  _313
REMARK  139  A    between atoms: _313  and  _314
REMARK  140  A    between atoms: _318  and  _320
REMARK  141  A    between atoms: _320  and  _321
REMARK  142  A    between atoms: _323  and  _325
REMARK  143  A    between atoms: _325  and  _326
REMARK  144  A    between atoms: _325  and  _328
REMARK  145  A    between atoms: _328  and  _329
REMARK  146  A    between atoms: _332  and  _334
REMARK  147  A    between atoms: _334  and  _335
REMARK  148  A    between atoms: _334  and  _337
REMARK  149  A    between atoms: _337  and  _338
REMARK  150  A    between atoms: _344  and  _346
REMARK  151  A    between atoms: _346  and  _347
REMARK  152  A    between atoms: _349  and  _351
REMARK  153  A    between atoms: _351  and  _352
REMARK  154  A    between atoms: _351  and  _354
REMARK  155  A    between atoms: _357  and  _359
REMARK  156  A    between atoms: _359  and  _360
REMARK  157  A    between atoms: _362  and  _364
REMARK  158  A    between atoms: _364  and  _365
REMARK  159  A    between atoms: _364  and  _367
REMARK  160  A    between atoms: _367  and  _368
REMARK  161  A    between atoms: _374  and  _376
REMARK  162  A    between atoms: _376  and  _377
REMARK  163  A    between atoms: _376  and  _379
REMARK  164  A    between atoms: _379  and  _380
REMARK  165  A    between atoms: _385  and  _386
REMARK  166  A    between atoms: _388  and  _390
REMARK  167  A    between atoms: _390  and  _391
REMARK  168  A    between atoms: _390  and  _393
REMARK  169  A    between atoms: _393  and  _394
REMARK  170  A    between atoms: _396  and  _398
REMARK  171  A    between atoms: _398  and  _399
REMARK  172  A    between atoms: _398  and  _401
REMARK  173  A    between atoms: _401  and  _402
REMARK  174  A    between atoms: _407  and  _408
REMARK  175  A    between atoms: _410  and  _412
REMARK  176  A    between atoms: _412  and  _413
REMARK  177  A    between atoms: _412  and  _415
REMARK  178  A    between atoms: _418  and  _420
REMARK  179  A    between atoms: _420  and  _421
REMARK  180  A    between atoms: _420  and  _423
REMARK  181  A    between atoms: _423  and  _424
REMARK  182  A    between atoms: _427  and  _429
REMARK  183  A    between atoms: _429  and  _430
REMARK  184  A    between atoms: _429  and  _432
REMARK  185  A    between atoms: _435  and  _437
REMARK  186  A    between atoms: _437  and  _438
REMARK  187  A    between atoms: _437  and  _440
REMARK  188  A    between atoms: _440  and  _441
REMARK  189  A    between atoms: _444  and  _446
REMARK  190  A    between atoms: _446  and  _447
REMARK  191  A    between atoms: _446  and  _449
REMARK  192  A    between atoms: _449  and  _450
REMARK  193  A    between atoms: _453  and  _455
REMARK  194  A    between atoms: _455  and  _456
REMARK  195  A    between atoms: _455  and  _458
REMARK  196  A    between atoms: _458  and  _459
REMARK  197  A    between atoms: _459  and  _460
REMARK  198  A    between atoms: _460  and  _461
REMARK  199  A    between atoms: _461  and  _462
REMARK  200  A    between atoms: _466  and  _468
REMARK  201  A    between atoms: _468  and  _469
REMARK  202  A    between atoms: _468  and  _471
REMARK  203  A    between atoms: _471  and  _472
REMARK  204  A    between atoms: _477  and  _479
REMARK  205  A    between atoms: _479  and  _480
REMARK  206  A    between atoms: _483  and  _485
REMARK  207  A    between atoms: _485  and  _486
REMARK  208  A    between atoms: _485  and  _488
REMARK  209  A    between atoms: _488  and  _489
REMARK  210  A    between atoms: _499  and  _501
REMARK  211  A    between atoms: _501  and  _502
REMARK  212  A    between atoms: _501  and  _504
REMARK  213  A    between atoms: _504  and  _505
REMARK  214  A    between atoms: _505  and  _506
REMARK  215  A    between atoms: _509  and  _511
REMARK  216  A    between atoms: _511  and  _512
REMARK  217  A    between atoms: _511  and  _514
REMARK  218  A    between atoms: _514  and  _515
REMARK  219  A    between atoms: _517  and  _519
REMARK  220  A    between atoms: _519  and  _520
REMARK  221  A    between atoms: _519  and  _522
REMARK  222  A    between atoms: _522  and  _523
REMARK  223  A    between atoms: _529  and  _531
REMARK  224  A    between atoms: _531  and  _532
REMARK  225  A    between atoms: _531  and  _534
REMARK  226  A    between atoms: _534  and  _535
REMARK  227  A    between atoms: _538  and  _540
REMARK  228  A    between atoms: _540  and  _541
REMARK  229  A    between atoms: _540  and  _543
REMARK  230  A    between atoms: _546  and  _548
REMARK  231  A    between atoms: _548  and  _549
REMARK  232  A    between atoms: _551  and  _553
REMARK  233  A    between atoms: _553  and  _554
REMARK  234  A    between atoms: _553  and  _556
REMARK  235  A    between atoms: _556  and  _557
REMARK  236  A    between atoms: _560  and  _562
REMARK  237  A    between atoms: _562  and  _563
REMARK  238  A    between atoms: _562  and  _565
REMARK  239  A    between atoms: _565  and  _566
REMARK  240  A    between atoms: _566  and  _567
REMARK  241  A    between atoms: _567  and  _568
REMARK  242  A    between atoms: _568  and  _569
REMARK  243  A    between atoms: _573  and  _575
REMARK  244  A    between atoms: _575  and  _576
REMARK  245  A    between atoms: _575  and  _578
REMARK                            x       y       z     vdW  Elec       q    Type
REMARK                         _______ _______ _______ _____ _____    ______ ____
ROOT
ATOM      1  O   HOH     1       9.629  29.335  21.722  0.00  0.00    +0.000 OA
ENDROOT
TORSDOF 0
REMARK  Name = ../refined-set-2016/2qg2/2qg2_pocket.pdb
REMARK  245 active torsions:
REMARK  status: ('A' for Active; 'I' for Inactive)
REMARK    1  A    between atoms: _1  and  _3
REMARK    2  A    between atoms: _3  and  _4
REMARK    3  A    between atoms: _3  and  _6
REMARK    4  A    between atoms: _6  and  _7
REMARK    5  A    between atoms: _13  and  _15
REMARK    6  A    between atoms: _15  and  _16
REMARK    7  A    between atoms: _15  and  _18
REMARK    8  A    between atoms: _18  and  _19
REMARK    9  A    between atoms: _22  and  _24
REMARK   10  A    between atoms: _24  and  _25
REMARK   11  A    between atoms: _24  and  _27
REMARK   12  A    between atoms: _27  and  _28
REMARK   13  A    between atoms: _31  and  _33
REMARK   14  A    between atoms: _33  and  _34
REMARK   15  A    between atoms: _33  and  _36
REMARK   16  A    between atoms: _36  and  _37
REMARK   17  A    between atoms: _37  and  _38
REMARK   18  A    between atoms: _41  and  _43
REMARK   19  A    between atoms: _43  and  _44
REMARK   20  A    between atoms: _43  and  _46
REMARK   21  A    between atoms: _46  and  _47
REMARK   22  A    between atoms: _50  and  _52
REMARK   23  A    between atoms: _52  and  _53
REMARK   24  A    between atoms: _52  and  _55
REMARK   25  A    between atoms: _55  and  _56
REMARK   26  A    between atoms: _59  and  _61
REMARK   27  A    between atoms: _61  and  _62
REMARK   28  A    between atoms: _61  and  _64
REMARK   29  A    between atoms: _64  and  _65
REMARK   30  A    between atoms: _67  and  _69
REMARK   31  A    between atoms: _69  and  _70
REMARK   32  A    between atoms: _69  and  _72
REMARK   33  A    between atoms: _72  and  _73
REMARK   34  A    between atoms: _78  and  _80
REMARK   35  A    between atoms: _80  and  _81
REMARK   36  A    between atoms: _80  and  _83
REMARK   37  A    between atoms: _83  and  _84
REMARK   38  A    between atoms: _86  and  _88
REMARK   39  A    between atoms: _88  and  _89
REMARK   40  A    between atoms: _88  and  _91
REMARK   41  A    between atoms: _91  and  _92
REMARK   42  A    between atoms: _94  and  _96
REMARK   43  A    between atoms: _96  and  _97
REMARK   44  A    between atoms: _96  and  _99
REMARK   45  A    between atoms: _99  and  _100
REMARK   46  A    between atoms: _103  and  _105
REMARK   47  A    between atoms: _105  and  _106
REMARK   48  A    between atoms: _109  and  _111
REMARK   49  A    between atoms: _111  and  _112
REMARK   50  A    between atoms: _111  and  _114
REMARK   51  A    between atoms: _114  and  _115
REMARK   52  A    between atoms: _118  and  _120
REMARK   53  A    between atoms: _120  and  _121
REMARK   54  A    between atoms: _120  and  _123
REMARK   55  A    between atoms: _123  and  _124
REMARK   56  A    between atoms: _124  and  _125
REMARK   57  A    between atoms: _125  and  _126
REMARK   58  A    between atoms: _126  and  _127
REMARK   59  A    between atoms: _131  and  _133
REMARK   60  A    between atoms: _133  and  _134
REMARK   61  A    between atoms: _133  and  _136
REMARK   62  A    between atoms: _136  and  _137
REMARK   63  A    between atoms: _140  and  _142
REMARK   64  A    between atoms: _142  and  _143
REMARK   65  A    between atoms: _142  and  _145
REMARK   66  A    between atoms: _145  and  _146
REMARK   67  A    between atoms: _149  and  _151
REMARK   68  A    between atoms: _151  and  _152
REMARK   69  A    between atoms: _151  and  _154
REMARK   70  A    between atoms: _157  and  _159
REMARK   71  A    between atoms: _159  and  _160
REMARK   72  A    between atoms: _159  and  _162
REMARK   73  A    between atoms: _162  and  _163
REMARK   74  A    between atoms: _166  and  _168
REMARK   75  A    between atoms: _168  and  _169
REMARK   76  A    between atoms: _168  and  _171
REMARK   77  A    between atoms: _171  and  _172
REMARK   78  A    between atoms: _175  and  _177
REMARK   79  A    between atoms: _177  and  _178
REMARK   80  A    between atoms: _180  and  _182
REMARK   81  A    between atoms: _182  and  _183
REMARK   82  A    between atoms: _182  and  _185
REMARK   83  A    between atoms: _185  and  _186
REMARK   84  A    between atoms: _189  and  _191
REMARK   85  A    between atoms: _191  and  _192
REMARK   86  A    between atoms: _194  and  _196
REMARK   87  A    between atoms: _196  and  _197
REMARK   88  A    between atoms: _196  and  _199
REMARK   89  A    between atoms: _199  and  _200
REMARK   90  A    between atoms: _200  and  _201
REMARK   91  A    between atoms: _203  and  _205
REMARK   92  A    between atoms: _205  and  _206
REMARK   93  A    between atoms: _205  and  _208
REMARK   94  A    between atoms: _208  and  _209
REMARK   95  A    between atoms: _212  and  _214
REMARK   96  A    between atoms: _214  and  _215
REMARK   97  A    between atoms: _218  and  _220
REMARK   98  A    between atoms: _220  and  _221
REMARK   99  A    between atoms: _220  and  _223
REMARK  100  A    between atoms: _223  and  _224
REMARK  101  A    between atoms: _227  and  _229
REMARK  102  A    between atoms: _229  and  _230
REMARK  103  A    between atoms: _229  and  _232
REMARK  104  A    between atoms: _232  and  _233
REMARK  105  A    between atoms: _236  and  _238
REMARK  106  A    between atoms: _238  and  _239
REMARK  107  A    between atoms: _238  and  _241
REMARK  108  A    between atoms: _241  and  _242
REMARK  109  A    between atoms: _245  and  _247
REMARK  110  A    between atoms: _247  and  _248
REMARK  111  A    between atoms: _247  and  _250
REMARK  112  A    between atoms: _250  and  _251
REMARK  113  A    between atoms: _256  and  _258
REMARK  114  A    between atoms: _258  and  _259
REMARK  115  A    between atoms: _258  and  _261
REMARK  116  A    between atoms: _261  and  _262
REMARK  117  A    between atoms: _267  and  _269
REMARK  118  A    between atoms: _269  and  _270
REMARK  119  A    between atoms: _269  and  _272
REMARK  120  A    between atoms: _272  and  _273
REMARK  121  A    between atoms: _276  and  _278
REMARK  122  A    between atoms: _278  and  _279
REMARK  123  A    between atoms: _281  and  _283
REMARK  124  A    between atoms: _283  and  _284
REMARK  125  A    between atoms: _283  and  _286
REMARK  126  A    between atoms: _286  and  _287
REMARK  127  A    between atoms: _290  and  _292
REMARK  128  A    between atoms: _292  and  _293
REMARK  129  A    between atoms: _292  and  _295
REMARK  130  A    between atoms: _295  and  _296
REMARK  131  A    between atoms: _299  and  _301
REMARK  132  A    between atoms: _301  and  _302
REMARK  133  A    between atoms: _305  and  _307
REMARK  134  A    between atoms: _307  and  _308
REMARK  135  A    between atoms: _307  and  _310
REMARK  136  A    between atoms: _310  and  _311
REMARK  137  A    between atoms: _311  and  _312
REMARK  138  A    between atoms: _312  and  _313
REMARK  139  A    between atoms: _313  and  _314
REMARK  140  A    between atoms: _318  and  _320
REMARK  141  A    between atoms: _320  and  _321
REMARK  142  A    between atoms: _323  and  _325
REMARK  143  A    between atoms: _325  and  _326
REMARK  144  A    between atoms: _325  and  _328
REMARK  145  A    between atoms: _328  and  _329
REMARK  146  A    between atoms: _332  and  _334
REMARK  147  A    between atoms: _334  and  _335
REMARK  148  A    between atoms: _334  and  _337
REMARK  149  A    between atoms: _337  and  _338
REMARK  150  A    between atoms: _344  and  _346
REMARK  151  A    between atoms: _346  and  _347
REMARK  152  A    between atoms: _349  and  _351
REMARK  153  A    between atoms: _351  and  _352
REMARK  154  A    between atoms: _351  and  _354
REMARK  155  A    between atoms: _357  and  _359
REMARK  156  A    between atoms: _359  and  _360
REMARK  157  A    between atoms: _362  and  _364
REMARK  158  A    between atoms: _364  and  _365
REMARK  159  A    between atoms: _364  and  _367
REMARK  160  A    between atoms: _367  and  _368
REMARK  161  A    between atoms: _374  and  _376
REMARK  162  A    between atoms: _376  and  _377
REMARK  163  A    between atoms: _376  and  _379
REMARK  164  A    between atoms: _379  and  _380
REMARK  165  A    between atoms: _385  and  _386
REMARK  166  A    between atoms: _388  and  _390
REMARK  167  A    between atoms: _390  and  _391
REMARK  168  A    between atoms: _390  and  _393
REMARK  169  A    between atoms: _393  and  _394
REMARK  170  A    between atoms: _396  and  _398
REMARK  171  A    between atoms: _398  and  _399
REMARK  172  A    between atoms: _398  and  _401
REMARK  173  A    between atoms: _401  and  _402
REMARK  174  A    between atoms: _407  and  _408
REMARK  175  A    between atoms: _410  and  _412
REMARK  176  A    between atoms: _412  and  _413
REMARK  177  A    between atoms: _412  and  _415
REMARK  178  A    between atoms: _418  and  _420
REMARK  179  A    between atoms: _420  and  _421
REMARK  180  A    between atoms: _420  and  _423
REMARK  181  A    between atoms: _423  and  _424
REMARK  182  A    between atoms: _427  and  _429
REMARK  183  A    between atoms: _429  and  _430
REMARK  184  A    between atoms: _429  and  _432
REMARK  185  A    between atoms: _435  and  _437
REMARK  186  A    between atoms: _437  and  _438
REMARK  187  A    between atoms: _437  and  _440
REMARK  188  A    between atoms: _440  and  _441
REMARK  189  A    between atoms: _444  and  _446
REMARK  190  A    between atoms: _446  and  _447
REMARK  191  A    between atoms: _446  and  _449
REMARK  192  A    between atoms: _449  and  _450
REMARK  193  A    between atoms: _453  and  _455
REMARK  194  A    between atoms: _455  and  _456
REMARK  195  A    between atoms: _455  and  _458
REMARK  196  A    between atoms: _458  and  _459
REMARK  197  A    between atoms: _459  and  _460
REMARK  198  A    between atoms: _460  and  _461
REMARK  199  A    between atoms: _461  and  _462
REMARK  200  A    between atoms: _466  and  _468
REMARK  201  A    between atoms: _468  and  _469
REMARK  202  A    between atoms: _468  and  _471
REMARK  203  A    between atoms: _471  and  _472
REMARK  204  A    between atoms: _477  and  _479
REMARK  205  A    between atoms: _479  and  _480
REMARK  206  A    between atoms: _483  and  _485
REMARK  207  A    between atoms: _485  and  _486
REMARK  208  A    between atoms: _485  and  _488
REMARK  209  A    between atoms: _488  and  _489
REMARK  210  A    between atoms: _499  and  _501
REMARK  211  A    between atoms: _501  and  _502
REMARK  212  A    between atoms: _501  and  _504
REMARK  213  A    between atoms: _504  and  _505
REMARK  214  A    between atoms: _505  and  _506
REMARK  215  A    between atoms: _509  and  _511
REMARK  216  A    between atoms: _511  and  _512
REMARK  217  A    between atoms: _511  and  _514
REMARK  218  A    between atoms: _514  and  _515
REMARK  219  A    between atoms: _517  and  _519
REMARK  220  A    between atoms: _519  and  _520
REMARK  221  A    between atoms: _519  and  _522
REMARK  222  A    between atoms: _522  and  _523
REMARK  223  A    between atoms: _529  and  _531
REMARK  224  A    between atoms: _531  and  _532
REMARK  225  A    between atoms: _531  and  _534
REMARK  226  A    between atoms: _534  and  _535
REMARK  227  A    between atoms: _538  and  _540
REMARK  228  A    between atoms: _540  and  _541
REMARK  229  A    between atoms: _540  and  _543
REMARK  230  A    between atoms: _546  and  _548
REMARK  231  A    between atoms: _548  and  _549
REMARK  232  A    between atoms: _551  and  _553
REMARK  233  A    between atoms: _553  and  _554
REMARK  234  A    between atoms: _553  and  _556
REMARK  235  A    between atoms: _556  and  _557
REMARK  236  A    between atoms: _560  and  _562
REMARK  237  A    between atoms: _562  and  _563
REMARK  238  A    between atoms: _562  and  _565
REMARK  239  A    between atoms: _565  and  _566
REMARK  240  A    between atoms: _566  and  _567
REMARK  241  A    between atoms: _567  and  _568
REMARK  242  A    between atoms: _568  and  _569
REMARK  243  A    between atoms: _573  and  _575
REMARK  244  A    between atoms: _575  and  _576
REMARK  245  A    between atoms: _575  and  _578
REMARK                            x       y       z     vdW  Elec       q    Type
REMARK                         _______ _______ _______ _____ _____    ______ ____
ROOT
ATOM      1  O   HOH     1       0.569  33.189  27.609  0.00  0.00    +0.000 OA
ENDROOT
TORSDOF 0
REMARK  Name = ../refined-set-2016/2qg2/2qg2_pocket.pdb
REMARK  245 active torsions:
REMARK  status: ('A' for Active; 'I' for Inactive)
REMARK    1  A    between atoms: _1  and  _3
REMARK    2  A    between atoms: _3  and  _4
REMARK    3  A    between atoms: _3  and  _6
REMARK    4  A    between atoms: _6  and  _7
REMARK    5  A    between atoms: _13  and  _15
REMARK    6  A    between atoms: _15  and  _16
REMARK    7  A    between atoms: _15  and  _18
REMARK    8  A    between atoms: _18  and  _19
REMARK    9  A    between atoms: _22  and  _24
REMARK   10  A    between atoms: _24  and  _25
REMARK   11  A    between atoms: _24  and  _27
REMARK   12  A    between atoms: _27  and  _28
REMARK   13  A    between atoms: _31  and  _33
REMARK   14  A    between atoms: _33  and  _34
REMARK   15  A    between atoms: _33  and  _36
REMARK   16  A    between atoms: _36  and  _37
REMARK   17  A    between atoms: _37  and  _38
REMARK   18  A    between atoms: _41  and  _43
REMARK   19  A    between atoms: _43  and  _44
REMARK   20  A    between atoms: _43  and  _46
REMARK   21  A    between atoms: _46  and  _47
REMARK   22  A    between atoms: _50  and  _52
REMARK   23  A    between atoms: _52  and  _53
REMARK   24  A    between atoms: _52  and  _55
REMARK   25  A    between atoms: _55  and  _56
REMARK   26  A    between atoms: _59  and  _61
REMARK   27  A    between atoms: _61  and  _62
REMARK   28  A    between atoms: _61  and  _64
REMARK   29  A    between atoms: _64  and  _65
REMARK   30  A    between atoms: _67  and  _69
REMARK   31  A    between atoms: _69  and  _70
REMARK   32  A    between atoms: _69  and  _72
REMARK   33  A    between atoms: _72  and  _73
REMARK   34  A    between atoms: _78  and  _80
REMARK   35  A    between atoms: _80  and  _81
REMARK   36  A    between atoms: _80  and  _83
REMARK   37  A    between atoms: _83  and  _84
REMARK   38  A    between atoms: _86  and  _88
REMARK   39  A    between atoms: _88  and  _89
REMARK   40  A    between atoms: _88  and  _91
REMARK   41  A    between atoms: _91  and  _92
REMARK   42  A    between atoms: _94  and  _96
REMARK   43  A    between atoms: _96  and  _97
REMARK   44  A    between atoms: _96  and  _99
REMARK   45  A    between atoms: _99  and  _100
REMARK   46  A    between atoms: _103  and  _105
REMARK   47  A    between atoms: _105  and  _106
REMARK   48  A    between atoms: _109  and  _111
REMARK   49  A    between atoms: _111  and  _112
REMARK   50  A    between atoms: _111  and  _114
REMARK   51  A    between atoms: _114  and  _115
REMARK   52  A    between atoms: _118  and  _120
REMARK   53  A    between atoms: _120  and  _121
REMARK   54  A    between atoms: _120  and  _123
REMARK   55  A    between atoms: _123  and  _124
REMARK   56  A    between atoms: _124  and  _125
REMARK   57  A    between atoms: _125  and  _126
REMARK   58  A    between atoms: _126  and  _127
REMARK   59  A    between atoms: _131  and  _133
REMARK   60  A    between atoms: _133  and  _134
REMARK   61  A    between atoms: _133  and  _136
REMARK   62  A    between atoms: _136  and  _137
REMARK   63  A    between atoms: _140  and  _142
REMARK   64  A    between atoms: _142  and  _143
REMARK   65  A    between atoms: _142  and  _145
REMARK   66  A    between atoms: _145  and  _146
REMARK   67  A    between atoms: _149  and  _151
REMARK   68  A    between atoms: _151  and  _152
REMARK   69  A    between atoms: _151  and  _154
REMARK   70  A    between atoms: _157  and  _159
REMARK   71  A    between atoms: _159  and  _160
REMARK   72  A    between atoms: _159  and  _162
REMARK   73  A    between atoms: _162  and  _163
REMARK   74  A    between atoms: _166  and  _168
REMARK   75  A    between atoms: _168  and  _169
REMARK   76  A    between atoms: _168  and  _171
REMARK   77  A    between atoms: _171  and  _172
REMARK   78  A    between atoms: _175  and  _177
REMARK   79  A    between atoms: _177  and  _178
REMARK   80  A    between atoms: _180  and  _182
REMARK   81  A    between atoms: _182  and  _183
REMARK   82  A    between atoms: _182  and  _185
REMARK   83  A    between atoms: _185  and  _186
REMARK   84  A    between atoms: _189  and  _191
REMARK   85  A    between atoms: _191  and  _192
REMARK   86  A    between atoms: _194  and  _196
REMARK   87  A    between atoms: _196  and  _197
REMARK   88  A    between atoms: _196  and  _199
REMARK   89  A    between atoms: _199  and  _200
REMARK   90  A    between atoms: _200  and  _201
REMARK   91  A    between atoms: _203  and  _205
REMARK   92  A    between atoms: _205  and  _206
REMARK   93  A    between atoms: _205  and  _208
REMARK   94  A    between atoms: _208  and  _209
REMARK   95  A    between atoms: _212  and  _214
REMARK   96  A    between atoms: _214  and  _215
REMARK   97  A    between atoms: _218  and  _220
REMARK   98  A    between atoms: _220  and  _221
REMARK   99  A    between atoms: _220  and  _223
REMARK  100  A    between atoms: _223  and  _224
REMARK  101  A    between atoms: _227  and  _229
REMARK  102  A    between atoms: _229  and  _230
REMARK  103  A    between atoms: _229  and  _232
REMARK  104  A    between atoms: _232  and  _233
REMARK  105  A    between atoms: _236  and  _238
REMARK  106  A    between atoms: _238  and  _239
REMARK  107  A    between atoms: _238  and  _241
REMARK  108  A    between atoms: _241  and  _242
REMARK  109  A    between atoms: _245  and  _247
REMARK  110  A    between atoms: _247  and  _248
REMARK  111  A    between atoms: _247  and  _250
REMARK  112  A    between atoms: _250  and  _251
REMARK  113  A    between atoms: _256  and  _258
REMARK  114  A    between atoms: _258  and  _259
REMARK  115  A    between atoms: _258  and  _261
REMARK  116  A    between atoms: _261  and  _262
REMARK  117  A    between atoms: _267  and  _269
REMARK  118  A    between atoms: _269  and  _270
REMARK  119  A    between atoms: _269  and  _272
REMARK  120  A    between atoms: _272  and  _273
REMARK  121  A    between atoms: _276  and  _278
REMARK  122  A    between atoms: _278  and  _279
REMARK  123  A    between atoms: _281  and  _283
REMARK  124  A    between atoms: _283  and  _284
REMARK  125  A    between atoms: _283  and  _286
REMARK  126  A    between atoms: _286  and  _287
REMARK  127  A    between atoms: _290  and  _292
REMARK  128  A    between atoms: _292  and  _293
REMARK  129  A    between atoms: _292  and  _295
REMARK  130  A    between atoms: _295  and  _296
REMARK  131  A    between atoms: _299  and  _301
REMARK  132  A    between atoms: _301  and  _302
REMARK  133  A    between atoms: _305  and  _307
REMARK  134  A    between atoms: _307  and  _308
REMARK  135  A    between atoms: _307  and  _310
REMARK  136  A    between atoms: _310  and  _311
REMARK  137  A    between atoms: _311  and  _312
REMARK  138  A    between atoms: _312  and  _313
REMARK  139  A    between atoms: _313  and  _314
REMARK  140  A    between atoms: _318  and  _320
REMARK  141  A    between atoms: _320  and  _321
REMARK  142  A    between atoms: _323  and  _325
REMARK  143  A    between atoms: _325  and  _326
REMARK  144  A    between atoms: _325  and  _328
REMARK  145  A    between atoms: _328  and  _329
REMARK  146  A    between atoms: _332  and  _334
REMARK  147  A    between atoms: _334  and  _335
REMARK  148  A    between atoms: _334  and  _337
REMARK  149  A    between atoms: _337  and  _338
REMARK  150  A    between atoms: _344  and  _346
REMARK  151  A    between atoms: _346  and  _347
REMARK  152  A    between atoms: _349  and  _351
REMARK  153  A    between atoms: _351  and  _352
REMARK  154  A    between atoms: _351  and  _354
REMARK  155  A    between atoms: _357  and  _359
REMARK  156  A    between atoms: _359  and  _360
REMARK  157  A    between atoms: _362  and  _364
REMARK  158  A    between atoms: _364  and  _365
REMARK  159  A    between atoms: _364  and  _367
REMARK  160  A    between atoms: _367  and  _368
REMARK  161  A    between atoms: _374  and  _376
REMARK  162  A    between atoms: _376  and  _377
REMARK  163  A    between atoms: _376  and  _379
REMARK  164  A    between atoms: _379  and  _380
REMARK  165  A    between atoms: _385  and  _386
REMARK  166  A    between atoms: _388  and  _390
REMARK  167  A    between atoms: _390  and  _391
REMARK  168  A    between atoms: _390  and  _393
REMARK  169  A    between atoms: _393  and  _394
REMARK  170  A    between atoms: _396  and  _398
REMARK  171  A    between atoms: _398  and  _399
REMARK  172  A    between atoms: _398  and  _401
REMARK  173  A    between atoms: _401  and  _402
REMARK  174  A    between atoms: _407  and  _408
REMARK  175  A    between atoms: _410  and  _412
REMARK  176  A    between atoms: _412  and  _413
REMARK  177  A    between atoms: _412  and  _415
REMARK  178  A    between atoms: _418  and  _420
REMARK  179  A    between atoms: _420  and  _421
REMARK  180  A    between atoms: _420  and  _423
REMARK  181  A    between atoms: _423  and  _424
REMARK  182  A    between atoms: _427  and  _429
REMARK  183  A    between atoms: _429  and  _430
REMARK  184  A    between atoms: _429  and  _432
REMARK  185  A    between atoms: _435  and  _437
REMARK  186  A    between atoms: _437  and  _438
REMARK  187  A    between atoms: _437  and  _440
REMARK  188  A    between atoms: _440  and  _441
REMARK  189  A    between atoms: _444  and  _446
REMARK  190  A    between atoms: _446  and  _447
REMARK  191  A    between atoms: _446  and  _449
REMARK  192  A    between atoms: _449  and  _450
REMARK  193  A    between atoms: _453  and  _455
REMARK  194  A    between atoms: _455  and  _456
REMARK  195  A    between atoms: _455  and  _458
REMARK  196  A    between atoms: _458  and  _459
REMARK  197  A    between atoms: _459  and  _460
REMARK  198  A    between atoms: _460  and  _461
REMARK  199  A    between atoms: _461  and  _462
REMARK  200  A    between atoms: _466  and  _468
REMARK  201  A    between atoms: _468  and  _469
REMARK  202  A    between atoms: _468  and  _471
REMARK  203  A    between atoms: _471  and  _472
REMARK  204  A    between atoms: _477  and  _479
REMARK  205  A    between atoms: _479  and  _480
REMARK  206  A    between atoms: _483  and  _485
REMARK  207  A    between atoms: _485  and  _486
REMARK  208  A    between atoms: _485  and  _488
REMARK  209  A    between atoms: _488  and  _489
REMARK  210  A    between atoms: _499  and  _501
REMARK  211  A    between atoms: _501  and  _502
REMARK  212  A    between atoms: _501  and  _504
REMARK  213  A    between atoms: _504  and  _505
REMARK  214  A    between atoms: _505  and  _506
REMARK  215  A    between atoms: _509  and  _511
REMARK  216  A    between atoms: _511  and  _512
REMARK  217  A    between atoms: _511  and  _514
REMARK  218  A    between atoms: _514  and  _515
REMARK  219  A    between atoms: _517  and  _519
REMARK  220  A    between atoms: _519  and  _520
REMARK  221  A    between atoms: _519  and  _522
REMARK  222  A    between atoms: _522  and  _523
REMARK  223  A    between atoms: _529  and  _531
REMARK  224  A    between atoms: _531  and  _532
REMARK  225  A    between atoms: _531  and  _534
REMARK  226  A    between atoms: _534  and  _535
REMARK  227  A    between atoms: _538  and  _540
REMARK  228  A    between atoms: _540  and  _541
REMARK  229  A    between atoms: _540  and  _543
REMARK  230  A    between atoms: _546  and  _548
REMARK  231  A    between atoms: _548  and  _549
REMARK  232  A    between atoms: _551  and  _553
REMARK  233  A    between atoms: _553  and  _554
REMARK  234  A    between atoms: _553  and  _556
REMARK  235  A    between atoms: _556  and  _557
REMARK  236  A    between atoms: _560  and  _562
REMARK  237  A    between atoms: _562  and  _563
REMARK  238  A    between atoms: _562  and  _565
REMARK  239  A    between atoms: _565  and  _566
REMARK  240  A    between atoms: _566  and  _567
REMARK  241  A    between atoms: _567  and  _568
REMARK  242  A    between atoms: _568  and  _569
REMARK  243  A    between atoms: _573  and  _575
REMARK  244  A    between atoms: _575  and  _576
REMARK  245  A    between atoms: _575  and  _578
REMARK                            x       y       z     vdW  Elec       q    Type
REMARK                         _______ _______ _______ _____ _____    ______ ____
ROOT
ATOM      1  O   HOH     1      -4.070  31.282  26.360  0.00  0.00    +0.000 OA
ENDROOT
TORSDOF 0
REMARK  Name = ../refined-set-2016/2qg2/2qg2_pocket.pdb
REMARK  245 active torsions:
REMARK  status: ('A' for Active; 'I' for Inactive)
REMARK    1  A    between atoms: _1  and  _3
REMARK    2  A    between atoms: _3  and  _4
REMARK    3  A    between atoms: _3  and  _6
REMARK    4  A    between atoms: _6  and  _7
REMARK    5  A    between atoms: _13  and  _15
REMARK    6  A    between atoms: _15  and  _16
REMARK    7  A    between atoms: _15  and  _18
REMARK    8  A    between atoms: _18  and  _19
REMARK    9  A    between atoms: _22  and  _24
REMARK   10  A    between atoms: _24  and  _25
REMARK   11  A    between atoms: _24  and  _27
REMARK   12  A    between atoms: _27  and  _28
REMARK   13  A    between atoms: _31  and  _33
REMARK   14  A    between atoms: _33  and  _34
REMARK   15  A    between atoms: _33  and  _36
REMARK   16  A    between atoms: _36  and  _37
REMARK   17  A    between atoms: _37  and  _38
REMARK   18  A    between atoms: _41  and  _43
REMARK   19  A    between atoms: _43  and  _44
REMARK   20  A    between atoms: _43  and  _46
REMARK   21  A    between atoms: _46  and  _47
REMARK   22  A    between atoms: _50  and  _52
REMARK   23  A    between atoms: _52  and  _53
REMARK   24  A    between atoms: _52  and  _55
REMARK   25  A    between atoms: _55  and  _56
REMARK   26  A    between atoms: _59  and  _61
REMARK   27  A    between atoms: _61  and  _62
REMARK   28  A    between atoms: _61  and  _64
REMARK   29  A    between atoms: _64  and  _65
REMARK   30  A    between atoms: _67  and  _69
REMARK   31  A    between atoms: _69  and  _70
REMARK   32  A    between atoms: _69  and  _72
REMARK   33  A    between atoms: _72  and  _73
REMARK   34  A    between atoms: _78  and  _80
REMARK   35  A    between atoms: _80  and  _81
REMARK   36  A    between atoms: _80  and  _83
REMARK   37  A    between atoms: _83  and  _84
REMARK   38  A    between atoms: _86  and  _88
REMARK   39  A    between atoms: _88  and  _89
REMARK   40  A    between atoms: _88  and  _91
REMARK   41  A    between atoms: _91  and  _92
REMARK   42  A    between atoms: _94  and  _96
REMARK   43  A    between atoms: _96  and  _97
REMARK   44  A    between atoms: _96  and  _99
REMARK   45  A    between atoms: _99  and  _100
REMARK   46  A    between atoms: _103  and  _105
REMARK   47  A    between atoms: _105  and  _106
REMARK   48  A    between atoms: _109  and  _111
REMARK   49  A    between atoms: _111  and  _112
REMARK   50  A    between atoms: _111  and  _114
REMARK   51  A    between atoms: _114  and  _115
REMARK   52  A    between atoms: _118  and  _120
REMARK   53  A    between atoms: _120  and  _121
REMARK   54  A    between atoms: _120  and  _123
REMARK   55  A    between atoms: _123  and  _124
REMARK   56  A    between atoms: _124  and  _125
REMARK   57  A    between atoms: _125  and  _126
REMARK   58  A    between atoms: _126  and  _127
REMARK   59  A    between atoms: _131  and  _133
REMARK   60  A    between atoms: _133  and  _134
REMARK   61  A    between atoms: _133  and  _136
REMARK   62  A    between atoms: _136  and  _137
REMARK   63  A    between atoms: _140  and  _142
REMARK   64  A    between atoms: _142  and  _143
REMARK   65  A    between atoms: _142  and  _145
REMARK   66  A    between atoms: _145  and  _146
REMARK   67  A    between atoms: _149  and  _151
REMARK   68  A    between atoms: _151  and  _152
REMARK   69  A    between atoms: _151  and  _154
REMARK   70  A    between atoms: _157  and  _159
REMARK   71  A    between atoms: _159  and  _160
REMARK   72  A    between atoms: _159  and  _162
REMARK   73  A    between atoms: _162  and  _163
REMARK   74  A    between atoms: _166  and  _168
REMARK   75  A    between atoms: _168  and  _169
REMARK   76  A    between atoms: _168  and  _171
REMARK   77  A    between atoms: _171  and  _172
REMARK   78  A    between atoms: _175  and  _177
REMARK   79  A    between atoms: _177  and  _178
REMARK   80  A    between atoms: _180  and  _182
REMARK   81  A    between atoms: _182  and  _183
REMARK   82  A    between atoms: _182  and  _185
REMARK   83  A    between atoms: _185  and  _186
REMARK   84  A    between atoms: _189  and  _191
REMARK   85  A    between atoms: _191  and  _192
REMARK   86  A    between atoms: _194  and  _196
REMARK   87  A    between atoms: _196  and  _197
REMARK   88  A    between atoms: _196  and  _199
REMARK   89  A    between atoms: _199  and  _200
REMARK   90  A    between atoms: _200  and  _201
REMARK   91  A    between atoms: _203  and  _205
REMARK   92  A    between atoms: _205  and  _206
REMARK   93  A    between atoms: _205  and  _208
REMARK   94  A    between atoms: _208  and  _209
REMARK   95  A    between atoms: _212  and  _214
REMARK   96  A    between atoms: _214  and  _215
REMARK   97  A    between atoms: _218  and  _220
REMARK   98  A    between atoms: _220  and  _221
REMARK   99  A    between atoms: _220  and  _223
REMARK  100  A    between atoms: _223  and  _224
REMARK  101  A    between atoms: _227  and  _229
REMARK  102  A    between atoms: _229  and  _230
REMARK  103  A    between atoms: _229  and  _232
REMARK  104  A    between atoms: _232  and  _233
REMARK  105  A    between atoms: _236  and  _238
REMARK  106  A    between atoms: _238  and  _239
REMARK  107  A    between atoms: _238  and  _241
REMARK  108  A    between atoms: _241  and  _242
REMARK  109  A    between atoms: _245  and  _247
REMARK  110  A    between atoms: _247  and  _248
REMARK  111  A    between atoms: _247  and  _250
REMARK  112  A    between atoms: _250  and  _251
REMARK  113  A    between atoms: _256  and  _258
REMARK  114  A    between atoms: _258  and  _259
REMARK  115  A    between atoms: _258  and  _261
REMARK  116  A    between atoms: _261  and  _262
REMARK  117  A    between atoms: _267  and  _269
REMARK  118  A    between atoms: _269  and  _270
REMARK  119  A    between atoms: _269  and  _272
REMARK  120  A    between atoms: _272  and  _273
REMARK  121  A    between atoms: _276  and  _278
REMARK  122  A    between atoms: _278  and  _279
REMARK  123  A    between atoms: _281  and  _283
REMARK  124  A    between atoms: _283  and  _284
REMARK  125  A    between atoms: _283  and  _286
REMARK  126  A    between atoms: _286  and  _287
REMARK  127  A    between atoms: _290  and  _292
REMARK  128  A    between atoms: _292  and  _293
REMARK  129  A    between atoms: _292  and  _295
REMARK  130  A    between atoms: _295  and  _296
REMARK  131  A    between atoms: _299  and  _301
REMARK  132  A    between atoms: _301  and  _302
REMARK  133  A    between atoms: _305  and  _307
REMARK  134  A    between atoms: _307  and  _308
REMARK  135  A    between atoms: _307  and  _310
REMARK  136  A    between atoms: _310  and  _311
REMARK  137  A    between atoms: _311  and  _312
REMARK  138  A    between atoms: _312  and  _313
REMARK  139  A    between atoms: _313  and  _314
REMARK  140  A    between atoms: _318  and  _320
REMARK  141  A    between atoms: _320  and  _321
REMARK  142  A    between atoms: _323  and  _325
REMARK  143  A    between atoms: _325  and  _326
REMARK  144  A    between atoms: _325  and  _328
REMARK  145  A    between atoms: _328  and  _329
REMARK  146  A    between atoms: _332  and  _334
REMARK  147  A    between atoms: _334  and  _335
REMARK  148  A    between atoms: _334  and  _337
REMARK  149  A    between atoms: _337  and  _338
REMARK  150  A    between atoms: _344  and  _346
REMARK  151  A    between atoms: _346  and  _347
REMARK  152  A    between atoms: _349  and  _351
REMARK  153  A    between atoms: _351  and  _352
REMARK  154  A    between atoms: _351  and  _354
REMARK  155  A    between atoms: _357  and  _359
REMARK  156  A    between atoms: _359  and  _360
REMARK  157  A    between atoms: _362  and  _364
REMARK  158  A    between atoms: _364  and  _365
REMARK  159  A    between atoms: _364  and  _367
REMARK  160  A    between atoms: _367  and  _368
REMARK  161  A    between atoms: _374  and  _376
REMARK  162  A    between atoms: _376  and  _377
REMARK  163  A    between atoms: _376  and  _379
REMARK  164  A    between atoms: _379  and  _380
REMARK  165  A    between atoms: _385  and  _386
REMARK  166  A    between atoms: _388  and  _390
REMARK  167  A    between atoms: _390  and  _391
REMARK  168  A    between atoms: _390  and  _393
REMARK  169  A    between atoms: _393  and  _394
REMARK  170  A    between atoms: _396  and  _398
REMARK  171  A    between atoms: _398  and  _399
REMARK  172  A    between atoms: _398  and  _401
REMARK  173  A    between atoms: _401  and  _402
REMARK  174  A    between atoms: _407  and  _408
REMARK  175  A    between atoms: _410  and  _412
REMARK  176  A    between atoms: _412  and  _413
REMARK  177  A    between atoms: _412  and  _415
REMARK  178  A    between atoms: _418  and  _420
REMARK  179  A    between atoms: _420  and  _421
REMARK  180  A    between atoms: _420  and  _423
REMARK  181  A    between atoms: _423  and  _424
REMARK  182  A    between atoms: _427  and  _429
REMARK  183  A    between atoms: _429  and  _430
REMARK  184  A    between atoms: _429  and  _432
REMARK  185  A    between atoms: _435  and  _437
REMARK  186  A    between atoms: _437  and  _438
REMARK  187  A    between atoms: _437  and  _440
REMARK  188  A    between atoms: _440  and  _441
REMARK  189  A    between atoms: _444  and  _446
REMARK  190  A    between atoms: _446  and  _447
REMARK  191  A    between atoms: _446  and  _449
REMARK  192  A    between atoms: _449  and  _450
REMARK  193  A    between atoms: _453  and  _455
REMARK  194  A    between atoms: _455  and  _456
REMARK  195  A    between atoms: _455  and  _458
REMARK  196  A    between atoms: _458  and  _459
REMARK  197  A    between atoms: _459  and  _460
REMARK  198  A    between atoms: _460  and  _461
REMARK  199  A    between atoms: _461  and  _462
REMARK  200  A    between atoms: _466  and  _468
REMARK  201  A    between atoms: _468  and  _469
REMARK  202  A    between atoms: _468  and  _471
REMARK  203  A    between atoms: _471  and  _472
REMARK  204  A    between atoms: _477  and  _479
REMARK  205  A    between atoms: _479  and  _480
REMARK  206  A    between atoms: _483  and  _485
REMARK  207  A    between atoms: _485  and  _486
REMARK  208  A    between atoms: _485  and  _488
REMARK  209  A    between atoms: _488  and  _489
REMARK  210  A    between atoms: _499  and  _501
REMARK  211  A    between atoms: _501  and  _502
REMARK  212  A    between atoms: _501  and  _504
REMARK  213  A    between atoms: _504  and  _505
REMARK  214  A    between atoms: _505  and  _506
REMARK  215  A    between atoms: _509  and  _511
REMARK  216  A    between atoms: _511  and  _512
REMARK  217  A    between atoms: _511  and  _514
REMARK  218  A    between atoms: _514  and  _515
REMARK  219  A    between atoms: _517  and  _519
REMARK  220  A    between atoms: _519  and  _520
REMARK  221  A    between atoms: _519  and  _522
REMARK  222  A    between atoms: _522  and  _523
REMARK  223  A    between atoms: _529  and  _531
REMARK  224  A    between atoms: _531  and  _532
REMARK  225  A    between atoms: _531  and  _534
REMARK  226  A    between atoms: _534  and  _535
REMARK  227  A    between atoms: _538  and  _540
REMARK  228  A    between atoms: _540  and  _541
REMARK  229  A    between atoms: _540  and  _543
REMARK  230  A    between atoms: _546  and  _548
REMARK  231  A    between atoms: _548  and  _549
REMARK  232  A    between atoms: _551  and  _553
REMARK  233  A    between atoms: _553  and  _554
REMARK  234  A    between atoms: _553  and  _556
REMARK  235  A    between atoms: _556  and  _557
REMARK  236  A    between atoms: _560  and  _562
REMARK  237  A    between atoms: _562  and  _563
REMARK  238  A    between atoms: _562  and  _565
REMARK  239  A    between atoms: _565  and  _566
REMARK  240  A    between atoms: _566  and  _567
REMARK  241  A    between atoms: _567  and  _568
REMARK  242  A    between atoms: _568  and  _569
REMARK  243  A    between atoms: _573  and  _575
REMARK  244  A    between atoms: _575  and  _576
REMARK  245  A    between atoms: _575  and  _578
REMARK                            x       y       z     vdW  Elec       q    Type
REMARK                         _______ _______ _______ _____ _____    ______ ____
ROOT
ATOM      1  O   HOH     1      -2.389  32.611  28.192  0.00  0.00    +0.000 OA
ENDROOT
TORSDOF 0
REMARK  Name = ../refined-set-2016/2qg2/2qg2_pocket.pdb
REMARK  245 active torsions:
REMARK  status: ('A' for Active; 'I' for Inactive)
REMARK    1  A    between atoms: _1  and  _3
REMARK    2  A    between atoms: _3  and  _4
REMARK    3  A    between atoms: _3  and  _6
REMARK    4  A    between atoms: _6  and  _7
REMARK    5  A    between atoms: _13  and  _15
REMARK    6  A    between atoms: _15  and  _16
REMARK    7  A    between atoms: _15  and  _18
REMARK    8  A    between atoms: _18  and  _19
REMARK    9  A    between atoms: _22  and  _24
REMARK   10  A    between atoms: _24  and  _25
REMARK   11  A    between atoms: _24  and  _27
REMARK   12  A    between atoms: _27  and  _28
REMARK   13  A    between atoms: _31  and  _33
REMARK   14  A    between atoms: _33  and  _34
REMARK   15  A    between atoms: _33  and  _36
REMARK   16  A    between atoms: _36  and  _37
REMARK   17  A    between atoms: _37  and  _38
REMARK   18  A    between atoms: _41  and  _43
REMARK   19  A    between atoms: _43  and  _44
REMARK   20  A    between atoms: _43  and  _46
REMARK   21  A    between atoms: _46  and  _47
REMARK   22  A    between atoms: _50  and  _52
REMARK   23  A    between atoms: _52  and  _53
REMARK   24  A    between atoms: _52  and  _55
REMARK   25  A    between atoms: _55  and  _56
REMARK   26  A    between atoms: _59  and  _61
REMARK   27  A    between atoms: _61  and  _62
REMARK   28  A    between atoms: _61  and  _64
REMARK   29  A    between atoms: _64  and  _65
REMARK   30  A    between atoms: _67  and  _69
REMARK   31  A    between atoms: _69  and  _70
REMARK   32  A    between atoms: _69  and  _72
REMARK   33  A    between atoms: _72  and  _73
REMARK   34  A    between atoms: _78  and  _80
REMARK   35  A    between atoms: _80  and  _81
REMARK   36  A    between atoms: _80  and  _83
REMARK   37  A    between atoms: _83  and  _84
REMARK   38  A    between atoms: _86  and  _88
REMARK   39  A    between atoms: _88  and  _89
REMARK   40  A    between atoms: _88  and  _91
REMARK   41  A    between atoms: _91  and  _92
REMARK   42  A    between atoms: _94  and  _96
REMARK   43  A    between atoms: _96  and  _97
REMARK   44  A    between atoms: _96  and  _99
REMARK   45  A    between atoms: _99  and  _100
REMARK   46  A    between atoms: _103  and  _105
REMARK   47  A    between atoms: _105  and  _106
REMARK   48  A    between atoms: _109  and  _111
REMARK   49  A    between atoms: _111  and  _112
REMARK   50  A    between atoms: _111  and  _114
REMARK   51  A    between atoms: _114  and  _115
REMARK   52  A    between atoms: _118  and  _120
REMARK   53  A    between atoms: _120  and  _121
REMARK   54  A    between atoms: _120  and  _123
REMARK   55  A    between atoms: _123  and  _124
REMARK   56  A    between atoms: _124  and  _125
REMARK   57  A    between atoms: _125  and  _126
REMARK   58  A    between atoms: _126  and  _127
REMARK   59  A    between atoms: _131  and  _133
REMARK   60  A    between atoms: _133  and  _134
REMARK   61  A    between atoms: _133  and  _136
REMARK   62  A    between atoms: _136  and  _137
REMARK   63  A    between atoms: _140  and  _142
REMARK   64  A    between atoms: _142  and  _143
REMARK   65  A    between atoms: _142  and  _145
REMARK   66  A    between atoms: _145  and  _146
REMARK   67  A    between atoms: _149  and  _151
REMARK   68  A    between atoms: _151  and  _152
REMARK   69  A    between atoms: _151  and  _154
REMARK   70  A    between atoms: _157  and  _159
REMARK   71  A    between atoms: _159  and  _160
REMARK   72  A    between atoms: _159  and  _162
REMARK   73  A    between atoms: _162  and  _163
REMARK   74  A    between atoms: _166  and  _168
REMARK   75  A    between atoms: _168  and  _169
REMARK   76  A    between atoms: _168  and  _171
REMARK   77  A    between atoms: _171  and  _172
REMARK   78  A    between atoms: _175  and  _177
REMARK   79  A    between atoms: _177  and  _178
REMARK   80  A    between atoms: _180  and  _182
REMARK   81  A    between atoms: _182  and  _183
REMARK   82  A    between atoms: _182  and  _185
REMARK   83  A    between atoms: _185  and  _186
REMARK   84  A    between atoms: _189  and  _191
REMARK   85  A    between atoms: _191  and  _192
REMARK   86  A    between atoms: _194  and  _196
REMARK   87  A    between atoms: _196  and  _197
REMARK   88  A    between atoms: _196  and  _199
REMARK   89  A    between atoms: _199  and  _200
REMARK   90  A    between atoms: _200  and  _201
REMARK   91  A    between atoms: _203  and  _205
REMARK   92  A    between atoms: _205  and  _206
REMARK   93  A    between atoms: _205  and  _208
REMARK   94  A    between atoms: _208  and  _209
REMARK   95  A    between atoms: _212  and  _214
REMARK   96  A    between atoms: _214  and  _215
REMARK   97  A    between atoms: _218  and  _220
REMARK   98  A    between atoms: _220  and  _221
REMARK   99  A    between atoms: _220  and  _223
REMARK  100  A    between atoms: _223  and  _224
REMARK  101  A    between atoms: _227  and  _229
REMARK  102  A    between atoms: _229  and  _230
REMARK  103  A    between atoms: _229  and  _232
REMARK  104  A    between atoms: _232  and  _233
REMARK  105  A    between atoms: _236  and  _238
REMARK  106  A    between atoms: _238  and  _239
REMARK  107  A    between atoms: _238  and  _241
REMARK  108  A    between atoms: _241  and  _242
REMARK  109  A    between atoms: _245  and  _247
REMARK  110  A    between atoms: _247  and  _248
REMARK  111  A    between atoms: _247  and  _250
REMARK  112  A    between atoms: _250  and  _251
REMARK  113  A    between atoms: _256  and  _258
REMARK  114  A    between atoms: _258  and  _259
REMARK  115  A    between atoms: _258  and  _261
REMARK  116  A    between atoms: _261  and  _262
REMARK  117  A    between atoms: _267  and  _269
REMARK  118  A    between atoms: _269  and  _270
REMARK  119  A    between atoms: _269  and  _272
REMARK  120  A    between atoms: _272  and  _273
REMARK  121  A    between atoms: _276  and  _278
REMARK  122  A    between atoms: _278  and  _279
REMARK  123  A    between atoms: _281  and  _283
REMARK  124  A    between atoms: _283  and  _284
REMARK  125  A    between atoms: _283  and  _286
REMARK  126  A    between atoms: _286  and  _287
REMARK  127  A    between atoms: _290  and  _292
REMARK  128  A    between atoms: _292  and  _293
REMARK  129  A    between atoms: _292  and  _295
REMARK  130  A    between atoms: _295  and  _296
REMARK  131  A    between atoms: _299  and  _301
REMARK  132  A    between atoms: _301  and  _302
REMARK  133  A    between atoms: _305  and  _307
REMARK  134  A    between atoms: _307  and  _308
REMARK  135  A    between atoms: _307  and  _310
REMARK  136  A    between atoms: _310  and  _311
REMARK  137  A    between atoms: _311  and  _312
REMARK  138  A    between atoms: _312  and  _313
REMARK  139  A    between atoms: _313  and  _314
REMARK  140  A    between atoms: _318  and  _320
REMARK  141  A    between atoms: _320  and  _321
REMARK  142  A    between atoms: _323  and  _325
REMARK  143  A    between atoms: _325  and  _326
REMARK  144  A    between atoms: _325  and  _328
REMARK  145  A    between atoms: _328  and  _329
REMARK  146  A    between atoms: _332  and  _334
REMARK  147  A    between atoms: _334  and  _335
REMARK  148  A    between atoms: _334  and  _337
REMARK  149  A    between atoms: _337  and  _338
REMARK  150  A    between atoms: _344  and  _346
REMARK  151  A    between atoms: _346  and  _347
REMARK  152  A    between atoms: _349  and  _351
REMARK  153  A    between atoms: _351  and  _352
REMARK  154  A    between atoms: _351  and  _354
REMARK  155  A    between atoms: _357  and  _359
REMARK  156  A    between atoms: _359  and  _360
REMARK  157  A    between atoms: _362  and  _364
REMARK  158  A    between atoms: _364  and  _365
REMARK  159  A    between atoms: _364  and  _367
REMARK  160  A    between atoms: _367  and  _368
REMARK  161  A    between atoms: _374  and  _376
REMARK  162  A    between atoms: _376  and  _377
REMARK  163  A    between atoms: _376  and  _379
REMARK  164  A    between atoms: _379  and  _380
REMARK  165  A    between atoms: _385  and  _386
REMARK  166  A    between atoms: _388  and  _390
REMARK  167  A    between atoms: _390  and  _391
REMARK  168  A    between atoms: _390  and  _393
REMARK  169  A    between atoms: _393  and  _394
REMARK  170  A    between atoms: _396  and  _398
REMARK  171  A    between atoms: _398  and  _399
REMARK  172  A    between atoms: _398  and  _401
REMARK  173  A    between atoms: _401  and  _402
REMARK  174  A    between atoms: _407  and  _408
REMARK  175  A    between atoms: _410  and  _412
REMARK  176  A    between atoms: _412  and  _413
REMARK  177  A    between atoms: _412  and  _415
REMARK  178  A    between atoms: _418  and  _420
REMARK  179  A    between atoms: _420  and  _421
REMARK  180  A    between atoms: _420  and  _423
REMARK  181  A    between atoms: _423  and  _424
REMARK  182  A    between atoms: _427  and  _429
REMARK  183  A    between atoms: _429  and  _430
REMARK  184  A    between atoms: _429  and  _432
REMARK  185  A    between atoms: _435  and  _437
REMARK  186  A    between atoms: _437  and  _438
REMARK  187  A    between atoms: _437  and  _440
REMARK  188  A    between atoms: _440  and  _441
REMARK  189  A    between atoms: _444  and  _446
REMARK  190  A    between atoms: _446  and  _447
REMARK  191  A    between atoms: _446  and  _449
REMARK  192  A    between atoms: _449  and  _450
REMARK  193  A    between atoms: _453  and  _455
REMARK  194  A    between atoms: _455  and  _456
REMARK  195  A    between atoms: _455  and  _458
REMARK  196  A    between atoms: _458  and  _459
REMARK  197  A    between atoms: _459  and  _460
REMARK  198  A    between atoms: _460  and  _461
REMARK  199  A    between atoms: _461  and  _462
REMARK  200  A    between atoms: _466  and  _468
REMARK  201  A    between atoms: _468  and  _469
REMARK  202  A    between atoms: _468  and  _471
REMARK  203  A    between atoms: _471  and  _472
REMARK  204  A    between atoms: _477  and  _479
REMARK  205  A    between atoms: _479  and  _480
REMARK  206  A    between atoms: _483  and  _485
REMARK  207  A    between atoms: _485  and  _486
REMARK  208  A    between atoms: _485  and  _488
REMARK  209  A    between atoms: _488  and  _489
REMARK  210  A    between atoms: _499  and  _501
REMARK  211  A    between atoms: _501  and  _502
REMARK  212  A    between atoms: _501  and  _504
REMARK  213  A    between atoms: _504  and  _505
REMARK  214  A    between atoms: _505  and  _506
REMARK  215  A    between atoms: _509  and  _511
REMARK  216  A    between atoms: _511  and  _512
REMARK  217  A    between atoms: _511  and  _514
REMARK  218  A    between atoms: _514  and  _515
REMARK  219  A    between atoms: _517  and  _519
REMARK  220  A    between atoms: _519  and  _520
REMARK  221  A    between atoms: _519  and  _522
REMARK  222  A    between atoms: _522  and  _523
REMARK  223  A    between atoms: _529  and  _531
REMARK  224  A    between atoms: _531  and  _532
REMARK  225  A    between atoms: _531  and  _534
REMARK  226  A    between atoms: _534  and  _535
REMARK  227  A    between atoms: _538  and  _540
REMARK  228  A    between atoms: _540  and  _541
REMARK  229  A    between atoms: _540  and  _543
REMARK  230  A    between atoms: _546  and  _548
REMARK  231  A    between atoms: _548  and  _549
REMARK  232  A    between atoms: _551  and  _553
REMARK  233  A    between atoms: _553  and  _554
REMARK  234  A    between atoms: _553  and  _556
REMARK  235  A    between atoms: _556  and  _557
REMARK  236  A    between atoms: _560  and  _562
REMARK  237  A    between atoms: _562  and  _563
REMARK  238  A    between atoms: _562  and  _565
REMARK  239  A    between atoms: _565  and  _566
REMARK  240  A    between atoms: _566  and  _567
REMARK  241  A    between atoms: _567  and  _568
REMARK  242  A    between atoms: _568  and  _569
REMARK  243  A    between atoms: _573  and  _575
REMARK  244  A    between atoms: _575  and  _576
REMARK  245  A    between atoms: _575  and  _578
REMARK                            x       y       z     vdW  Elec       q    Type
REMARK                         _______ _______ _______ _____ _____    ______ ____
ROOT
ATOM      1  O   HOH     1       1.299  37.557  18.061  0.00  0.00    +0.000 OA
ENDROOT
TORSDOF 0
REMARK  Name = ../refined-set-2016/2qg2/2qg2_pocket.pdb
REMARK  245 active torsions:
REMARK  status: ('A' for Active; 'I' for Inactive)
REMARK    1  A    between atoms: _1  and  _3
REMARK    2  A    between atoms: _3  and  _4
REMARK    3  A    between atoms: _3  and  _6
REMARK    4  A    between atoms: _6  and  _7
REMARK    5  A    between atoms: _13  and  _15
REMARK    6  A    between atoms: _15  and  _16
REMARK    7  A    between atoms: _15  and  _18
REMARK    8  A    between atoms: _18  and  _19
REMARK    9  A    between atoms: _22  and  _24
REMARK   10  A    between atoms: _24  and  _25
REMARK   11  A    between atoms: _24  and  _27
REMARK   12  A    between atoms: _27  and  _28
REMARK   13  A    between atoms: _31  and  _33
REMARK   14  A    between atoms: _33  and  _34
REMARK   15  A    between atoms: _33  and  _36
REMARK   16  A    between atoms: _36  and  _37
REMARK   17  A    between atoms: _37  and  _38
REMARK   18  A    between atoms: _41  and  _43
REMARK   19  A    between atoms: _43  and  _44
REMARK   20  A    between atoms: _43  and  _46
REMARK   21  A    between atoms: _46  and  _47
REMARK   22  A    between atoms: _50  and  _52
REMARK   23  A    between atoms: _52  and  _53
REMARK   24  A    between atoms: _52  and  _55
REMARK   25  A    between atoms: _55  and  _56
REMARK   26  A    between atoms: _59  and  _61
REMARK   27  A    between atoms: _61  and  _62
REMARK   28  A    between atoms: _61  and  _64
REMARK   29  A    between atoms: _64  and  _65
REMARK   30  A    between atoms: _67  and  _69
REMARK   31  A    between atoms: _69  and  _70
REMARK   32  A    between atoms: _69  and  _72
REMARK   33  A    between atoms: _72  and  _73
REMARK   34  A    between atoms: _78  and  _80
REMARK   35  A    between atoms: _80  and  _81
REMARK   36  A    between atoms: _80  and  _83
REMARK   37  A    between atoms: _83  and  _84
REMARK   38  A    between atoms: _86  and  _88
REMARK   39  A    between atoms: _88  and  _89
REMARK   40  A    between atoms: _88  and  _91
REMARK   41  A    between atoms: _91  and  _92
REMARK   42  A    between atoms: _94  and  _96
REMARK   43  A    between atoms: _96  and  _97
REMARK   44  A    between atoms: _96  and  _99
REMARK   45  A    between atoms: _99  and  _100
REMARK   46  A    between atoms: _103  and  _105
REMARK   47  A    between atoms: _105  and  _106
REMARK   48  A    between atoms: _109  and  _111
REMARK   49  A    between atoms: _111  and  _112
REMARK   50  A    between atoms: _111  and  _114
REMARK   51  A    between atoms: _114  and  _115
REMARK   52  A    between atoms: _118  and  _120
REMARK   53  A    between atoms: _120  and  _121
REMARK   54  A    between atoms: _120  and  _123
REMARK   55  A    between atoms: _123  and  _124
REMARK   56  A    between atoms: _124  and  _125
REMARK   57  A    between atoms: _125  and  _126
REMARK   58  A    between atoms: _126  and  _127
REMARK   59  A    between atoms: _131  and  _133
REMARK   60  A    between atoms: _133  and  _134
REMARK   61  A    between atoms: _133  and  _136
REMARK   62  A    between atoms: _136  and  _137
REMARK   63  A    between atoms: _140  and  _142
REMARK   64  A    between atoms: _142  and  _143
REMARK   65  A    between atoms: _142  and  _145
REMARK   66  A    between atoms: _145  and  _146
REMARK   67  A    between atoms: _149  and  _151
REMARK   68  A    between atoms: _151  and  _152
REMARK   69  A    between atoms: _151  and  _154
REMARK   70  A    between atoms: _157  and  _159
REMARK   71  A    between atoms: _159  and  _160
REMARK   72  A    between atoms: _159  and  _162
REMARK   73  A    between atoms: _162  and  _163
REMARK   74  A    between atoms: _166  and  _168
REMARK   75  A    between atoms: _168  and  _169
REMARK   76  A    between atoms: _168  and  _171
REMARK   77  A    between atoms: _171  and  _172
REMARK   78  A    between atoms: _175  and  _177
REMARK   79  A    between atoms: _177  and  _178
REMARK   80  A    between atoms: _180  and  _182
REMARK   81  A    between atoms: _182  and  _183
REMARK   82  A    between atoms: _182  and  _185
REMARK   83  A    between atoms: _185  and  _186
REMARK   84  A    between atoms: _189  and  _191
REMARK   85  A    between atoms: _191  and  _192
REMARK   86  A    between atoms: _194  and  _196
REMARK   87  A    between atoms: _196  and  _197
REMARK   88  A    between atoms: _196  and  _199
REMARK   89  A    between atoms: _199  and  _200
REMARK   90  A    between atoms: _200  and  _201
REMARK   91  A    between atoms: _203  and  _205
REMARK   92  A    between atoms: _205  and  _206
REMARK   93  A    between atoms: _205  and  _208
REMARK   94  A    between atoms: _208  and  _209
REMARK   95  A    between atoms: _212  and  _214
REMARK   96  A    between atoms: _214  and  _215
REMARK   97  A    between atoms: _218  and  _220
REMARK   98  A    between atoms: _220  and  _221
REMARK   99  A    between atoms: _220  and  _223
REMARK  100  A    between atoms: _223  and  _224
REMARK  101  A    between atoms: _227  and  _229
REMARK  102  A    between atoms: _229  and  _230
REMARK  103  A    between atoms: _229  and  _232
REMARK  104  A    between atoms: _232  and  _233
REMARK  105  A    between atoms: _236  and  _238
REMARK  106  A    between atoms: _238  and  _239
REMARK  107  A    between atoms: _238  and  _241
REMARK  108  A    between atoms: _241  and  _242
REMARK  109  A    between atoms: _245  and  _247
REMARK  110  A    between atoms: _247  and  _248
REMARK  111  A    between atoms: _247  and  _250
REMARK  112  A    between atoms: _250  and  _251
REMARK  113  A    between atoms: _256  and  _258
REMARK  114  A    between atoms: _258  and  _259
REMARK  115  A    between atoms: _258  and  _261
REMARK  116  A    between atoms: _261  and  _262
REMARK  117  A    between atoms: _267  and  _269
REMARK  118  A    between atoms: _269  and  _270
REMARK  119  A    between atoms: _269  and  _272
REMARK  120  A    between atoms: _272  and  _273
REMARK  121  A    between atoms: _276  and  _278
REMARK  122  A    between atoms: _278  and  _279
REMARK  123  A    between atoms: _281  and  _283
REMARK  124  A    between atoms: _283  and  _284
REMARK  125  A    between atoms: _283  and  _286
REMARK  126  A    between atoms: _286  and  _287
REMARK  127  A    between atoms: _290  and  _292
REMARK  128  A    between atoms: _292  and  _293
REMARK  129  A    between atoms: _292  and  _295
REMARK  130  A    between atoms: _295  and  _296
REMARK  131  A    between atoms: _299  and  _301
REMARK  132  A    between atoms: _301  and  _302
REMARK  133  A    between atoms: _305  and  _307
REMARK  134  A    between atoms: _307  and  _308
REMARK  135  A    between atoms: _307  and  _310
REMARK  136  A    between atoms: _310  and  _311
REMARK  137  A    between atoms: _311  and  _312
REMARK  138  A    between atoms: _312  and  _313
REMARK  139  A    between atoms: _313  and  _314
REMARK  140  A    between atoms: _318  and  _320
REMARK  141  A    between atoms: _320  and  _321
REMARK  142  A    between atoms: _323  and  _325
REMARK  143  A    between atoms: _325  and  _326
REMARK  144  A    between atoms: _325  and  _328
REMARK  145  A    between atoms: _328  and  _329
REMARK  146  A    between atoms: _332  and  _334
REMARK  147  A    between atoms: _334  and  _335
REMARK  148  A    between atoms: _334  and  _337
REMARK  149  A    between atoms: _337  and  _338
REMARK  150  A    between atoms: _344  and  _346
REMARK  151  A    between atoms: _346  and  _347
REMARK  152  A    between atoms: _349  and  _351
REMARK  153  A    between atoms: _351  and  _352
REMARK  154  A    between atoms: _351  and  _354
REMARK  155  A    between atoms: _357  and  _359
REMARK  156  A    between atoms: _359  and  _360
REMARK  157  A    between atoms: _362  and  _364
REMARK  158  A    between atoms: _364  and  _365
REMARK  159  A    between atoms: _364  and  _367
REMARK  160  A    between atoms: _367  and  _368
REMARK  161  A    between atoms: _374  and  _376
REMARK  162  A    between atoms: _376  and  _377
REMARK  163  A    between atoms: _376  and  _379
REMARK  164  A    between atoms: _379  and  _380
REMARK  165  A    between atoms: _385  and  _386
REMARK  166  A    between atoms: _388  and  _390
REMARK  167  A    between atoms: _390  and  _391
REMARK  168  A    between atoms: _390  and  _393
REMARK  169  A    between atoms: _393  and  _394
REMARK  170  A    between atoms: _396  and  _398
REMARK  171  A    between atoms: _398  and  _399
REMARK  172  A    between atoms: _398  and  _401
REMARK  173  A    between atoms: _401  and  _402
REMARK  174  A    between atoms: _407  and  _408
REMARK  175  A    between atoms: _410  and  _412
REMARK  176  A    between atoms: _412  and  _413
REMARK  177  A    between atoms: _412  and  _415
REMARK  178  A    between atoms: _418  and  _420
REMARK  179  A    between atoms: _420  and  _421
REMARK  180  A    between atoms: _420  and  _423
REMARK  181  A    between atoms: _423  and  _424
REMARK  182  A    between atoms: _427  and  _429
REMARK  183  A    between atoms: _429  and  _430
REMARK  184  A    between atoms: _429  and  _432
REMARK  185  A    between atoms: _435  and  _437
REMARK  186  A    between atoms: _437  and  _438
REMARK  187  A    between atoms: _437  and  _440
REMARK  188  A    between atoms: _440  and  _441
REMARK  189  A    between atoms: _444  and  _446
REMARK  190  A    between atoms: _446  and  _447
REMARK  191  A    between atoms: _446  and  _449
REMARK  192  A    between atoms: _449  and  _450
REMARK  193  A    between atoms: _453  and  _455
REMARK  194  A    between atoms: _455  and  _456
REMARK  195  A    between atoms: _455  and  _458
REMARK  196  A    between atoms: _458  and  _459
REMARK  197  A    between atoms: _459  and  _460
REMARK  198  A    between atoms: _460  and  _461
REMARK  199  A    between atoms: _461  and  _462
REMARK  200  A    between atoms: _466  and  _468
REMARK  201  A    between atoms: _468  and  _469
REMARK  202  A    between atoms: _468  and  _471
REMARK  203  A    between atoms: _471  and  _472
REMARK  204  A    between atoms: _477  and  _479
REMARK  205  A    between atoms: _479  and  _480
REMARK  206  A    between atoms: _483  and  _485
REMARK  207  A    between atoms: _485  and  _486
REMARK  208  A    between atoms: _485  and  _488
REMARK  209  A    between atoms: _488  and  _489
REMARK  210  A    between atoms: _499  and  _501
REMARK  211  A    between atoms: _501  and  _502
REMARK  212  A    between atoms: _501  and  _504
REMARK  213  A    between atoms: _504  and  _505
REMARK  214  A    between atoms: _505  and  _506
REMARK  215  A    between atoms: _509  and  _511
REMARK  216  A    between atoms: _511  and  _512
REMARK  217  A    between atoms: _511  and  _514
REMARK  218  A    between atoms: _514  and  _515
REMARK  219  A    between atoms: _517  and  _519
REMARK  220  A    between atoms: _519  and  _520
REMARK  221  A    between atoms: _519  and  _522
REMARK  222  A    between atoms: _522  and  _523
REMARK  223  A    between atoms: _529  and  _531
REMARK  224  A    between atoms: _531  and  _532
REMARK  225  A    between atoms: _531  and  _534
REMARK  226  A    between atoms: _534  and  _535
REMARK  227  A    between atoms: _538  and  _540
REMARK  228  A    between atoms: _540  and  _541
REMARK  229  A    between atoms: _540  and  _543
REMARK  230  A    between atoms: _546  and  _548
REMARK  231  A    between atoms: _548  and  _549
REMARK  232  A    between atoms: _551  and  _553
REMARK  233  A    between atoms: _553  and  _554
REMARK  234  A    between atoms: _553  and  _556
REMARK  235  A    between atoms: _556  and  _557
REMARK  236  A    between atoms: _560  and  _562
REMARK  237  A    between atoms: _562  and  _563
REMARK  238  A    between atoms: _562  and  _565
REMARK  239  A    between atoms: _565  and  _566
REMARK  240  A    between atoms: _566  and  _567
REMARK  241  A    between atoms: _567  and  _568
REMARK  242  A    between atoms: _568  and  _569
REMARK  243  A    between atoms: _573  and  _575
REMARK  244  A    between atoms: _575  and  _576
REMARK  245  A    between atoms: _575  and  _578
REMARK                            x       y       z     vdW  Elec       q    Type
REMARK                         _______ _______ _______ _____ _____    ______ ____
ROOT
ATOM      1  O   HOH     1       2.207  37.798  32.076  0.00  0.00    +0.000 OA
ENDROOT
TORSDOF 0
REMARK  Name = ../refined-set-2016/2qg2/2qg2_pocket.pdb
REMARK  245 active torsions:
REMARK  status: ('A' for Active; 'I' for Inactive)
REMARK    1  A    between atoms: _1  and  _3
REMARK    2  A    between atoms: _3  and  _4
REMARK    3  A    between atoms: _3  and  _6
REMARK    4  A    between atoms: _6  and  _7
REMARK    5  A    between atoms: _13  and  _15
REMARK    6  A    between atoms: _15  and  _16
REMARK    7  A    between atoms: _15  and  _18
REMARK    8  A    between atoms: _18  and  _19
REMARK    9  A    between atoms: _22  and  _24
REMARK   10  A    between atoms: _24  and  _25
REMARK   11  A    between atoms: _24  and  _27
REMARK   12  A    between atoms: _27  and  _28
REMARK   13  A    between atoms: _31  and  _33
REMARK   14  A    between atoms: _33  and  _34
REMARK   15  A    between atoms: _33  and  _36
REMARK   16  A    between atoms: _36  and  _37
REMARK   17  A    between atoms: _37  and  _38
REMARK   18  A    between atoms: _41  and  _43
REMARK   19  A    between atoms: _43  and  _44
REMARK   20  A    between atoms: _43  and  _46
REMARK   21  A    between atoms: _46  and  _47
REMARK   22  A    between atoms: _50  and  _52
REMARK   23  A    between atoms: _52  and  _53
REMARK   24  A    between atoms: _52  and  _55
REMARK   25  A    between atoms: _55  and  _56
REMARK   26  A    between atoms: _59  and  _61
REMARK   27  A    between atoms: _61  and  _62
REMARK   28  A    between atoms: _61  and  _64
REMARK   29  A    between atoms: _64  and  _65
REMARK   30  A    between atoms: _67  and  _69
REMARK   31  A    between atoms: _69  and  _70
REMARK   32  A    between atoms: _69  and  _72
REMARK   33  A    between atoms: _72  and  _73
REMARK   34  A    between atoms: _78  and  _80
REMARK   35  A    between atoms: _80  and  _81
REMARK   36  A    between atoms: _80  and  _83
REMARK   37  A    between atoms: _83  and  _84
REMARK   38  A    between atoms: _86  and  _88
REMARK   39  A    between atoms: _88  and  _89
REMARK   40  A    between atoms: _88  and  _91
REMARK   41  A    between atoms: _91  and  _92
REMARK   42  A    between atoms: _94  and  _96
REMARK   43  A    between atoms: _96  and  _97
REMARK   44  A    between atoms: _96  and  _99
REMARK   45  A    between atoms: _99  and  _100
REMARK   46  A    between atoms: _103  and  _105
REMARK   47  A    between atoms: _105  and  _106
REMARK   48  A    between atoms: _109  and  _111
REMARK   49  A    between atoms: _111  and  _112
REMARK   50  A    between atoms: _111  and  _114
REMARK   51  A    between atoms: _114  and  _115
REMARK   52  A    between atoms: _118  and  _120
REMARK   53  A    between atoms: _120  and  _121
REMARK   54  A    between atoms: _120  and  _123
REMARK   55  A    between atoms: _123  and  _124
REMARK   56  A    between atoms: _124  and  _125
REMARK   57  A    between atoms: _125  and  _126
REMARK   58  A    between atoms: _126  and  _127
REMARK   59  A    between atoms: _131  and  _133
REMARK   60  A    between atoms: _133  and  _134
REMARK   61  A    between atoms: _133  and  _136
REMARK   62  A    between atoms: _136  and  _137
REMARK   63  A    between atoms: _140  and  _142
REMARK   64  A    between atoms: _142  and  _143
REMARK   65  A    between atoms: _142  and  _145
REMARK   66  A    between atoms: _145  and  _146
REMARK   67  A    between atoms: _149  and  _151
REMARK   68  A    between atoms: _151  and  _152
REMARK   69  A    between atoms: _151  and  _154
REMARK   70  A    between atoms: _157  and  _159
REMARK   71  A    between atoms: _159  and  _160
REMARK   72  A    between atoms: _159  and  _162
REMARK   73  A    between atoms: _162  and  _163
REMARK   74  A    between atoms: _166  and  _168
REMARK   75  A    between atoms: _168  and  _169
REMARK   76  A    between atoms: _168  and  _171
REMARK   77  A    between atoms: _171  and  _172
REMARK   78  A    between atoms: _175  and  _177
REMARK   79  A    between atoms: _177  and  _178
REMARK   80  A    between atoms: _180  and  _182
REMARK   81  A    between atoms: _182  and  _183
REMARK   82  A    between atoms: _182  and  _185
REMARK   83  A    between atoms: _185  and  _186
REMARK   84  A    between atoms: _189  and  _191
REMARK   85  A    between atoms: _191  and  _192
REMARK   86  A    between atoms: _194  and  _196
REMARK   87  A    between atoms: _196  and  _197
REMARK   88  A    between atoms: _196  and  _199
REMARK   89  A    between atoms: _199  and  _200
REMARK   90  A    between atoms: _200  and  _201
REMARK   91  A    between atoms: _203  and  _205
REMARK   92  A    between atoms: _205  and  _206
REMARK   93  A    between atoms: _205  and  _208
REMARK   94  A    between atoms: _208  and  _209
REMARK   95  A    between atoms: _212  and  _214
REMARK   96  A    between atoms: _214  and  _215
REMARK   97  A    between atoms: _218  and  _220
REMARK   98  A    between atoms: _220  and  _221
REMARK   99  A    between atoms: _220  and  _223
REMARK  100  A    between atoms: _223  and  _224
REMARK  101  A    between atoms: _227  and  _229
REMARK  102  A    between atoms: _229  and  _230
REMARK  103  A    between atoms: _229  and  _232
REMARK  104  A    between atoms: _232  and  _233
REMARK  105  A    between atoms: _236  and  _238
REMARK  106  A    between atoms: _238  and  _239
REMARK  107  A    between atoms: _238  and  _241
REMARK  108  A    between atoms: _241  and  _242
REMARK  109  A    between atoms: _245  and  _247
REMARK  110  A    between atoms: _247  and  _248
REMARK  111  A    between atoms: _247  and  _250
REMARK  112  A    between atoms: _250  and  _251
REMARK  113  A    between atoms: _256  and  _258
REMARK  114  A    between atoms: _258  and  _259
REMARK  115  A    between atoms: _258  and  _261
REMARK  116  A    between atoms: _261  and  _262
REMARK  117  A    between atoms: _267  and  _269
REMARK  118  A    between atoms: _269  and  _270
REMARK  119  A    between atoms: _269  and  _272
REMARK  120  A    between atoms: _272  and  _273
REMARK  121  A    between atoms: _276  and  _278
REMARK  122  A    between atoms: _278  and  _279
REMARK  123  A    between atoms: _281  and  _283
REMARK  124  A    between atoms: _283  and  _284
REMARK  125  A    between atoms: _283  and  _286
REMARK  126  A    between atoms: _286  and  _287
REMARK  127  A    between atoms: _290  and  _292
REMARK  128  A    between atoms: _292  and  _293
REMARK  129  A    between atoms: _292  and  _295
REMARK  130  A    between atoms: _295  and  _296
REMARK  131  A    between atoms: _299  and  _301
REMARK  132  A    between atoms: _301  and  _302
REMARK  133  A    between atoms: _305  and  _307
REMARK  134  A    between atoms: _307  and  _308
REMARK  135  A    between atoms: _307  and  _310
REMARK  136  A    between atoms: _310  and  _311
REMARK  137  A    between atoms: _311  and  _312
REMARK  138  A    between atoms: _312  and  _313
REMARK  139  A    between atoms: _313  and  _314
REMARK  140  A    between atoms: _318  and  _320
REMARK  141  A    between atoms: _320  and  _321
REMARK  142  A    between atoms: _323  and  _325
REMARK  143  A    between atoms: _325  and  _326
REMARK  144  A    between atoms: _325  and  _328
REMARK  145  A    between atoms: _328  and  _329
REMARK  146  A    between atoms: _332  and  _334
REMARK  147  A    between atoms: _334  and  _335
REMARK  148  A    between atoms: _334  and  _337
REMARK  149  A    between atoms: _337  and  _338
REMARK  150  A    between atoms: _344  and  _346
REMARK  151  A    between atoms: _346  and  _347
REMARK  152  A    between atoms: _349  and  _351
REMARK  153  A    between atoms: _351  and  _352
REMARK  154  A    between atoms: _351  and  _354
REMARK  155  A    between atoms: _357  and  _359
REMARK  156  A    between atoms: _359  and  _360
REMARK  157  A    between atoms: _362  and  _364
REMARK  158  A    between atoms: _364  and  _365
REMARK  159  A    between atoms: _364  and  _367
REMARK  160  A    between atoms: _367  and  _368
REMARK  161  A    between atoms: _374  and  _376
REMARK  162  A    between atoms: _376  and  _377
REMARK  163  A    between atoms: _376  and  _379
REMARK  164  A    between atoms: _379  and  _380
REMARK  165  A    between atoms: _385  and  _386
REMARK  166  A    between atoms: _388  and  _390
REMARK  167  A    between atoms: _390  and  _391
REMARK  168  A    between atoms: _390  and  _393
REMARK  169  A    between atoms: _393  and  _394
REMARK  170  A    between atoms: _396  and  _398
REMARK  171  A    between atoms: _398  and  _399
REMARK  172  A    between atoms: _398  and  _401
REMARK  173  A    between atoms: _401  and  _402
REMARK  174  A    between atoms: _407  and  _408
REMARK  175  A    between atoms: _410  and  _412
REMARK  176  A    between atoms: _412  and  _413
REMARK  177  A    between atoms: _412  and  _415
REMARK  178  A    between atoms: _418  and  _420
REMARK  179  A    between atoms: _420  and  _421
REMARK  180  A    between atoms: _420  and  _423
REMARK  181  A    between atoms: _423  and  _424
REMARK  182  A    between atoms: _427  and  _429
REMARK  183  A    between atoms: _429  and  _430
REMARK  184  A    between atoms: _429  and  _432
REMARK  185  A    between atoms: _435  and  _437
REMARK  186  A    between atoms: _437  and  _438
REMARK  187  A    between atoms: _437  and  _440
REMARK  188  A    between atoms: _440  and  _441
REMARK  189  A    between atoms: _444  and  _446
REMARK  190  A    between atoms: _446  and  _447
REMARK  191  A    between atoms: _446  and  _449
REMARK  192  A    between atoms: _449  and  _450
REMARK  193  A    between atoms: _453  and  _455
REMARK  194  A    between atoms: _455  and  _456
REMARK  195  A    between atoms: _455  and  _458
REMARK  196  A    between atoms: _458  and  _459
REMARK  197  A    between atoms: _459  and  _460
REMARK  198  A    between atoms: _460  and  _461
REMARK  199  A    between atoms: _461  and  _462
REMARK  200  A    between atoms: _466  and  _468
REMARK  201  A    between atoms: _468  and  _469
REMARK  202  A    between atoms: _468  and  _471
REMARK  203  A    between atoms: _471  and  _472
REMARK  204  A    between atoms: _477  and  _479
REMARK  205  A    between atoms: _479  and  _480
REMARK  206  A    between atoms: _483  and  _485
REMARK  207  A    between atoms: _485  and  _486
REMARK  208  A    between atoms: _485  and  _488
REMARK  209  A    between atoms: _488  and  _489
REMARK  210  A    between atoms: _499  and  _501
REMARK  211  A    between atoms: _501  and  _502
REMARK  212  A    between atoms: _501  and  _504
REMARK  213  A    between atoms: _504  and  _505
REMARK  214  A    between atoms: _505  and  _506
REMARK  215  A    between atoms: _509  and  _511
REMARK  216  A    between atoms: _511  and  _512
REMARK  217  A    between atoms: _511  and  _514
REMARK  218  A    between atoms: _514  and  _515
REMARK  219  A    between atoms: _517  and  _519
REMARK  220  A    between atoms: _519  and  _520
REMARK  221  A    between atoms: _519  and  _522
REMARK  222  A    between atoms: _522  and  _523
REMARK  223  A    between atoms: _529  and  _531
REMARK  224  A    between atoms: _531  and  _532
REMARK  225  A    between atoms: _531  and  _534
REMARK  226  A    between atoms: _534  and  _535
REMARK  227  A    between atoms: _538  and  _540
REMARK  228  A    between atoms: _540  and  _541
REMARK  229  A    between atoms: _540  and  _543
REMARK  230  A    between atoms: _546  and  _548
REMARK  231  A    between atoms: _548  and  _549
REMARK  232  A    between atoms: _551  and  _553
REMARK  233  A    between atoms: _553  and  _554
REMARK  234  A    between atoms: _553  and  _556
REMARK  235  A    between atoms: _556  and  _557
REMARK  236  A    between atoms: _560  and  _562
REMARK  237  A    between atoms: _562  and  _563
REMARK  238  A    between atoms: _562  and  _565
REMARK  239  A    between atoms: _565  and  _566
REMARK  240  A    between atoms: _566  and  _567
REMARK  241  A    between atoms: _567  and  _568
REMARK  242  A    between atoms: _568  and  _569
REMARK  243  A    between atoms: _573  and  _575
REMARK  244  A    between atoms: _575  and  _576
REMARK  245  A    between atoms: _575  and  _578
REMARK                            x       y       z     vdW  Elec       q    Type
REMARK                         _______ _______ _______ _____ _____    ______ ____
ROOT
ATOM      1  O   HOH     1      -0.420  39.824  22.398  0.00  0.00    +0.000 OA
ENDROOT
TORSDOF 0
REMARK  Name = ../refined-set-2016/2qg2/2qg2_pocket.pdb
REMARK  245 active torsions:
REMARK  status: ('A' for Active; 'I' for Inactive)
REMARK    1  A    between atoms: _1  and  _3
REMARK    2  A    between atoms: _3  and  _4
REMARK    3  A    between atoms: _3  and  _6
REMARK    4  A    between atoms: _6  and  _7
REMARK    5  A    between atoms: _13  and  _15
REMARK    6  A    between atoms: _15  and  _16
REMARK    7  A    between atoms: _15  and  _18
REMARK    8  A    between atoms: _18  and  _19
REMARK    9  A    between atoms: _22  and  _24
REMARK   10  A    between atoms: _24  and  _25
REMARK   11  A    between atoms: _24  and  _27
REMARK   12  A    between atoms: _27  and  _28
REMARK   13  A    between atoms: _31  and  _33
REMARK   14  A    between atoms: _33  and  _34
REMARK   15  A    between atoms: _33  and  _36
REMARK   16  A    between atoms: _36  and  _37
REMARK   17  A    between atoms: _37  and  _38
REMARK   18  A    between atoms: _41  and  _43
REMARK   19  A    between atoms: _43  and  _44
REMARK   20  A    between atoms: _43  and  _46
REMARK   21  A    between atoms: _46  and  _47
REMARK   22  A    between atoms: _50  and  _52
REMARK   23  A    between atoms: _52  and  _53
REMARK   24  A    between atoms: _52  and  _55
REMARK   25  A    between atoms: _55  and  _56
REMARK   26  A    between atoms: _59  and  _61
REMARK   27  A    between atoms: _61  and  _62
REMARK   28  A    between atoms: _61  and  _64
REMARK   29  A    between atoms: _64  and  _65
REMARK   30  A    between atoms: _67  and  _69
REMARK   31  A    between atoms: _69  and  _70
REMARK   32  A    between atoms: _69  and  _72
REMARK   33  A    between atoms: _72  and  _73
REMARK   34  A    between atoms: _78  and  _80
REMARK   35  A    between atoms: _80  and  _81
REMARK   36  A    between atoms: _80  and  _83
REMARK   37  A    between atoms: _83  and  _84
REMARK   38  A    between atoms: _86  and  _88
REMARK   39  A    between atoms: _88  and  _89
REMARK   40  A    between atoms: _88  and  _91
REMARK   41  A    between atoms: _91  and  _92
REMARK   42  A    between atoms: _94  and  _96
REMARK   43  A    between atoms: _96  and  _97
REMARK   44  A    between atoms: _96  and  _99
REMARK   45  A    between atoms: _99  and  _100
REMARK   46  A    between atoms: _103  and  _105
REMARK   47  A    between atoms: _105  and  _106
REMARK   48  A    between atoms: _109  and  _111
REMARK   49  A    between atoms: _111  and  _112
REMARK   50  A    between atoms: _111  and  _114
REMARK   51  A    between atoms: _114  and  _115
REMARK   52  A    between atoms: _118  and  _120
REMARK   53  A    between atoms: _120  and  _121
REMARK   54  A    between atoms: _120  and  _123
REMARK   55  A    between atoms: _123  and  _124
REMARK   56  A    between atoms: _124  and  _125
REMARK   57  A    between atoms: _125  and  _126
REMARK   58  A    between atoms: _126  and  _127
REMARK   59  A    between atoms: _131  and  _133
REMARK   60  A    between atoms: _133  and  _134
REMARK   61  A    between atoms: _133  and  _136
REMARK   62  A    between atoms: _136  and  _137
REMARK   63  A    between atoms: _140  and  _142
REMARK   64  A    between atoms: _142  and  _143
REMARK   65  A    between atoms: _142  and  _145
REMARK   66  A    between atoms: _145  and  _146
REMARK   67  A    between atoms: _149  and  _151
REMARK   68  A    between atoms: _151  and  _152
REMARK   69  A    between atoms: _151  and  _154
REMARK   70  A    between atoms: _157  and  _159
REMARK   71  A    between atoms: _159  and  _160
REMARK   72  A    between atoms: _159  and  _162
REMARK   73  A    between atoms: _162  and  _163
REMARK   74  A    between atoms: _166  and  _168
REMARK   75  A    between atoms: _168  and  _169
REMARK   76  A    between atoms: _168  and  _171
REMARK   77  A    between atoms: _171  and  _172
REMARK   78  A    between atoms: _175  and  _177
REMARK   79  A    between atoms: _177  and  _178
REMARK   80  A    between atoms: _180  and  _182
REMARK   81  A    between atoms: _182  and  _183
REMARK   82  A    between atoms: _182  and  _185
REMARK   83  A    between atoms: _185  and  _186
REMARK   84  A    between atoms: _189  and  _191
REMARK   85  A    between atoms: _191  and  _192
REMARK   86  A    between atoms: _194  and  _196
REMARK   87  A    between atoms: _196  and  _197
REMARK   88  A    between atoms: _196  and  _199
REMARK   89  A    between atoms: _199  and  _200
REMARK   90  A    between atoms: _200  and  _201
REMARK   91  A    between atoms: _203  and  _205
REMARK   92  A    between atoms: _205  and  _206
REMARK   93  A    between atoms: _205  and  _208
REMARK   94  A    between atoms: _208  and  _209
REMARK   95  A    between atoms: _212  and  _214
REMARK   96  A    between atoms: _214  and  _215
REMARK   97  A    between atoms: _218  and  _220
REMARK   98  A    between atoms: _220  and  _221
REMARK   99  A    between atoms: _220  and  _223
REMARK  100  A    between atoms: _223  and  _224
REMARK  101  A    between atoms: _227  and  _229
REMARK  102  A    between atoms: _229  and  _230
REMARK  103  A    between atoms: _229  and  _232
REMARK  104  A    between atoms: _232  and  _233
REMARK  105  A    between atoms: _236  and  _238
REMARK  106  A    between atoms: _238  and  _239
REMARK  107  A    between atoms: _238  and  _241
REMARK  108  A    between atoms: _241  and  _242
REMARK  109  A    between atoms: _245  and  _247
REMARK  110  A    between atoms: _247  and  _248
REMARK  111  A    between atoms: _247  and  _250
REMARK  112  A    between atoms: _250  and  _251
REMARK  113  A    between atoms: _256  and  _258
REMARK  114  A    between atoms: _258  and  _259
REMARK  115  A    between atoms: _258  and  _261
REMARK  116  A    between atoms: _261  and  _262
REMARK  117  A    between atoms: _267  and  _269
REMARK  118  A    between atoms: _269  and  _270
REMARK  119  A    between atoms: _269  and  _272
REMARK  120  A    between atoms: _272  and  _273
REMARK  121  A    between atoms: _276  and  _278
REMARK  122  A    between atoms: _278  and  _279
REMARK  123  A    between atoms: _281  and  _283
REMARK  124  A    between atoms: _283  and  _284
REMARK  125  A    between atoms: _283  and  _286
REMARK  126  A    between atoms: _286  and  _287
REMARK  127  A    between atoms: _290  and  _292
REMARK  128  A    between atoms: _292  and  _293
REMARK  129  A    between atoms: _292  and  _295
REMARK  130  A    between atoms: _295  and  _296
REMARK  131  A    between atoms: _299  and  _301
REMARK  132  A    between atoms: _301  and  _302
REMARK  133  A    between atoms: _305  and  _307
REMARK  134  A    between atoms: _307  and  _308
REMARK  135  A    between atoms: _307  and  _310
REMARK  136  A    between atoms: _310  and  _311
REMARK  137  A    between atoms: _311  and  _312
REMARK  138  A    between atoms: _312  and  _313
REMARK  139  A    between atoms: _313  and  _314
REMARK  140  A    between atoms: _318  and  _320
REMARK  141  A    between atoms: _320  and  _321
REMARK  142  A    between atoms: _323  and  _325
REMARK  143  A    between atoms: _325  and  _326
REMARK  144  A    between atoms: _325  and  _328
REMARK  145  A    between atoms: _328  and  _329
REMARK  146  A    between atoms: _332  and  _334
REMARK  147  A    between atoms: _334  and  _335
REMARK  148  A    between atoms: _334  and  _337
REMARK  149  A    between atoms: _337  and  _338
REMARK  150  A    between atoms: _344  and  _346
REMARK  151  A    between atoms: _346  and  _347
REMARK  152  A    between atoms: _349  and  _351
REMARK  153  A    between atoms: _351  and  _352
REMARK  154  A    between atoms: _351  and  _354
REMARK  155  A    between atoms: _357  and  _359
REMARK  156  A    between atoms: _359  and  _360
REMARK  157  A    between atoms: _362  and  _364
REMARK  158  A    between atoms: _364  and  _365
REMARK  159  A    between atoms: _364  and  _367
REMARK  160  A    between atoms: _367  and  _368
REMARK  161  A    between atoms: _374  and  _376
REMARK  162  A    between atoms: _376  and  _377
REMARK  163  A    between atoms: _376  and  _379
REMARK  164  A    between atoms: _379  and  _380
REMARK  165  A    between atoms: _385  and  _386
REMARK  166  A    between atoms: _388  and  _390
REMARK  167  A    between atoms: _390  and  _391
REMARK  168  A    between atoms: _390  and  _393
REMARK  169  A    between atoms: _393  and  _394
REMARK  170  A    between atoms: _396  and  _398
REMARK  171  A    between atoms: _398  and  _399
REMARK  172  A    between atoms: _398  and  _401
REMARK  173  A    between atoms: _401  and  _402
REMARK  174  A    between atoms: _407  and  _408
REMARK  175  A    between atoms: _410  and  _412
REMARK  176  A    between atoms: _412  and  _413
REMARK  177  A    between atoms: _412  and  _415
REMARK  178  A    between atoms: _418  and  _420
REMARK  179  A    between atoms: _420  and  _421
REMARK  180  A    between atoms: _420  and  _423
REMARK  181  A    between atoms: _423  and  _424
REMARK  182  A    between atoms: _427  and  _429
REMARK  183  A    between atoms: _429  and  _430
REMARK  184  A    between atoms: _429  and  _432
REMARK  185  A    between atoms: _435  and  _437
REMARK  186  A    between atoms: _437  and  _438
REMARK  187  A    between atoms: _437  and  _440
REMARK  188  A    between atoms: _440  and  _441
REMARK  189  A    between atoms: _444  and  _446
REMARK  190  A    between atoms: _446  and  _447
REMARK  191  A    between atoms: _446  and  _449
REMARK  192  A    between atoms: _449  and  _450
REMARK  193  A    between atoms: _453  and  _455
REMARK  194  A    between atoms: _455  and  _456
REMARK  195  A    between atoms: _455  and  _458
REMARK  196  A    between atoms: _458  and  _459
REMARK  197  A    between atoms: _459  and  _460
REMARK  198  A    between atoms: _460  and  _461
REMARK  199  A    between atoms: _461  and  _462
REMARK  200  A    between atoms: _466  and  _468
REMARK  201  A    between atoms: _468  and  _469
REMARK  202  A    between atoms: _468  and  _471
REMARK  203  A    between atoms: _471  and  _472
REMARK  204  A    between atoms: _477  and  _479
REMARK  205  A    between atoms: _479  and  _480
REMARK  206  A    between atoms: _483  and  _485
REMARK  207  A    between atoms: _485  and  _486
REMARK  208  A    between atoms: _485  and  _488
REMARK  209  A    between atoms: _488  and  _489
REMARK  210  A    between atoms: _499  and  _501
REMARK  211  A    between atoms: _501  and  _502
REMARK  212  A    between atoms: _501  and  _504
REMARK  213  A    between atoms: _504  and  _505
REMARK  214  A    between atoms: _505  and  _506
REMARK  215  A    between atoms: _509  and  _511
REMARK  216  A    between atoms: _511  and  _512
REMARK  217  A    between atoms: _511  and  _514
REMARK  218  A    between atoms: _514  and  _515
REMARK  219  A    between atoms: _517  and  _519
REMARK  220  A    between atoms: _519  and  _520
REMARK  221  A    between atoms: _519  and  _522
REMARK  222  A    between atoms: _522  and  _523
REMARK  223  A    between atoms: _529  and  _531
REMARK  224  A    between atoms: _531  and  _532
REMARK  225  A    between atoms: _531  and  _534
REMARK  226  A    between atoms: _534  and  _535
REMARK  227  A    between atoms: _538  and  _540
REMARK  228  A    between atoms: _540  and  _541
REMARK  229  A    between atoms: _540  and  _543
REMARK  230  A    between atoms: _546  and  _548
REMARK  231  A    between atoms: _548  and  _549
REMARK  232  A    between atoms: _551  and  _553
REMARK  233  A    between atoms: _553  and  _554
REMARK  234  A    between atoms: _553  and  _556
REMARK  235  A    between atoms: _556  and  _557
REMARK  236  A    between atoms: _560  and  _562
REMARK  237  A    between atoms: _562  and  _563
REMARK  238  A    between atoms: _562  and  _565
REMARK  239  A    between atoms: _565  and  _566
REMARK  240  A    between atoms: _566  and  _567
REMARK  241  A    between atoms: _567  and  _568
REMARK  242  A    between atoms: _568  and  _569
REMARK  243  A    between atoms: _573  and  _575
REMARK  244  A    between atoms: _575  and  _576
REMARK  245  A    between atoms: _575  and  _578
REMARK                            x       y       z     vdW  Elec       q    Type
REMARK                         _______ _______ _______ _____ _____    ______ ____
ROOT
ATOM      1  O   HOH     1       0.861  39.952  29.990  0.00  0.00    +0.000 OA
ENDROOT
TORSDOF 0
REMARK  Name = ../refined-set-2016/2qg2/2qg2_pocket.pdb
REMARK  245 active torsions:
REMARK  status: ('A' for Active; 'I' for Inactive)
REMARK    1  A    between atoms: _1  and  _3
REMARK    2  A    between atoms: _3  and  _4
REMARK    3  A    between atoms: _3  and  _6
REMARK    4  A    between atoms: _6  and  _7
REMARK    5  A    between atoms: _13  and  _15
REMARK    6  A    between atoms: _15  and  _16
REMARK    7  A    between atoms: _15  and  _18
REMARK    8  A    between atoms: _18  and  _19
REMARK    9  A    between atoms: _22  and  _24
REMARK   10  A    between atoms: _24  and  _25
REMARK   11  A    between atoms: _24  and  _27
REMARK   12  A    between atoms: _27  and  _28
REMARK   13  A    between atoms: _31  and  _33
REMARK   14  A    between atoms: _33  and  _34
REMARK   15  A    between atoms: _33  and  _36
REMARK   16  A    between atoms: _36  and  _37
REMARK   17  A    between atoms: _37  and  _38
REMARK   18  A    between atoms: _41  and  _43
REMARK   19  A    between atoms: _43  and  _44
REMARK   20  A    between atoms: _43  and  _46
REMARK   21  A    between atoms: _46  and  _47
REMARK   22  A    between atoms: _50  and  _52
REMARK   23  A    between atoms: _52  and  _53
REMARK   24  A    between atoms: _52  and  _55
REMARK   25  A    between atoms: _55  and  _56
REMARK   26  A    between atoms: _59  and  _61
REMARK   27  A    between atoms: _61  and  _62
REMARK   28  A    between atoms: _61  and  _64
REMARK   29  A    between atoms: _64  and  _65
REMARK   30  A    between atoms: _67  and  _69
REMARK   31  A    between atoms: _69  and  _70
REMARK   32  A    between atoms: _69  and  _72
REMARK   33  A    between atoms: _72  and  _73
REMARK   34  A    between atoms: _78  and  _80
REMARK   35  A    between atoms: _80  and  _81
REMARK   36  A    between atoms: _80  and  _83
REMARK   37  A    between atoms: _83  and  _84
REMARK   38  A    between atoms: _86  and  _88
REMARK   39  A    between atoms: _88  and  _89
REMARK   40  A    between atoms: _88  and  _91
REMARK   41  A    between atoms: _91  and  _92
REMARK   42  A    between atoms: _94  and  _96
REMARK   43  A    between atoms: _96  and  _97
REMARK   44  A    between atoms: _96  and  _99
REMARK   45  A    between atoms: _99  and  _100
REMARK   46  A    between atoms: _103  and  _105
REMARK   47  A    between atoms: _105  and  _106
REMARK   48  A    between atoms: _109  and  _111
REMARK   49  A    between atoms: _111  and  _112
REMARK   50  A    between atoms: _111  and  _114
REMARK   51  A    between atoms: _114  and  _115
REMARK   52  A    between atoms: _118  and  _120
REMARK   53  A    between atoms: _120  and  _121
REMARK   54  A    between atoms: _120  and  _123
REMARK   55  A    between atoms: _123  and  _124
REMARK   56  A    between atoms: _124  and  _125
REMARK   57  A    between atoms: _125  and  _126
REMARK   58  A    between atoms: _126  and  _127
REMARK   59  A    between atoms: _131  and  _133
REMARK   60  A    between atoms: _133  and  _134
REMARK   61  A    between atoms: _133  and  _136
REMARK   62  A    between atoms: _136  and  _137
REMARK   63  A    between atoms: _140  and  _142
REMARK   64  A    between atoms: _142  and  _143
REMARK   65  A    between atoms: _142  and  _145
REMARK   66  A    between atoms: _145  and  _146
REMARK   67  A    between atoms: _149  and  _151
REMARK   68  A    between atoms: _151  and  _152
REMARK   69  A    between atoms: _151  and  _154
REMARK   70  A    between atoms: _157  and  _159
REMARK   71  A    between atoms: _159  and  _160
REMARK   72  A    between atoms: _159  and  _162
REMARK   73  A    between atoms: _162  and  _163
REMARK   74  A    between atoms: _166  and  _168
REMARK   75  A    between atoms: _168  and  _169
REMARK   76  A    between atoms: _168  and  _171
REMARK   77  A    between atoms: _171  and  _172
REMARK   78  A    between atoms: _175  and  _177
REMARK   79  A    between atoms: _177  and  _178
REMARK   80  A    between atoms: _180  and  _182
REMARK   81  A    between atoms: _182  and  _183
REMARK   82  A    between atoms: _182  and  _185
REMARK   83  A    between atoms: _185  and  _186
REMARK   84  A    between atoms: _189  and  _191
REMARK   85  A    between atoms: _191  and  _192
REMARK   86  A    between atoms: _194  and  _196
REMARK   87  A    between atoms: _196  and  _197
REMARK   88  A    between atoms: _196  and  _199
REMARK   89  A    between atoms: _199  and  _200
REMARK   90  A    between atoms: _200  and  _201
REMARK   91  A    between atoms: _203  and  _205
REMARK   92  A    between atoms: _205  and  _206
REMARK   93  A    between atoms: _205  and  _208
REMARK   94  A    between atoms: _208  and  _209
REMARK   95  A    between atoms: _212  and  _214
REMARK   96  A    between atoms: _214  and  _215
REMARK   97  A    between atoms: _218  and  _220
REMARK   98  A    between atoms: _220  and  _221
REMARK   99  A    between atoms: _220  and  _223
REMARK  100  A    between atoms: _223  and  _224
REMARK  101  A    between atoms: _227  and  _229
REMARK  102  A    between atoms: _229  and  _230
REMARK  103  A    between atoms: _229  and  _232
REMARK  104  A    between atoms: _232  and  _233
REMARK  105  A    between atoms: _236  and  _238
REMARK  106  A    between atoms: _238  and  _239
REMARK  107  A    between atoms: _238  and  _241
REMARK  108  A    between atoms: _241  and  _242
REMARK  109  A    between atoms: _245  and  _247
REMARK  110  A    between atoms: _247  and  _248
REMARK  111  A    between atoms: _247  and  _250
REMARK  112  A    between atoms: _250  and  _251
REMARK  113  A    between atoms: _256  and  _258
REMARK  114  A    between atoms: _258  and  _259
REMARK  115  A    between atoms: _258  and  _261
REMARK  116  A    between atoms: _261  and  _262
REMARK  117  A    between atoms: _267  and  _269
REMARK  118  A    between atoms: _269  and  _270
REMARK  119  A    between atoms: _269  and  _272
REMARK  120  A    between atoms: _272  and  _273
REMARK  121  A    between atoms: _276  and  _278
REMARK  122  A    between atoms: _278  and  _279
REMARK  123  A    between atoms: _281  and  _283
REMARK  124  A    between atoms: _283  and  _284
REMARK  125  A    between atoms: _283  and  _286
REMARK  126  A    between atoms: _286  and  _287
REMARK  127  A    between atoms: _290  and  _292
REMARK  128  A    between atoms: _292  and  _293
REMARK  129  A    between atoms: _292  and  _295
REMARK  130  A    between atoms: _295  and  _296
REMARK  131  A    between atoms: _299  and  _301
REMARK  132  A    between atoms: _301  and  _302
REMARK  133  A    between atoms: _305  and  _307
REMARK  134  A    between atoms: _307  and  _308
REMARK  135  A    between atoms: _307  and  _310
REMARK  136  A    between atoms: _310  and  _311
REMARK  137  A    between atoms: _311  and  _312
REMARK  138  A    between atoms: _312  and  _313
REMARK  139  A    between atoms: _313  and  _314
REMARK  140  A    between atoms: _318  and  _320
REMARK  141  A    between atoms: _320  and  _321
REMARK  142  A    between atoms: _323  and  _325
REMARK  143  A    between atoms: _325  and  _326
REMARK  144  A    between atoms: _325  and  _328
REMARK  145  A    between atoms: _328  and  _329
REMARK  146  A    between atoms: _332  and  _334
REMARK  147  A    between atoms: _334  and  _335
REMARK  148  A    between atoms: _334  and  _337
REMARK  149  A    between atoms: _337  and  _338
REMARK  150  A    between atoms: _344  and  _346
REMARK  151  A    between atoms: _346  and  _347
REMARK  152  A    between atoms: _349  and  _351
REMARK  153  A    between atoms: _351  and  _352
REMARK  154  A    between atoms: _351  and  _354
REMARK  155  A    between atoms: _357  and  _359
REMARK  156  A    between atoms: _359  and  _360
REMARK  157  A    between atoms: _362  and  _364
REMARK  158  A    between atoms: _364  and  _365
REMARK  159  A    between atoms: _364  and  _367
REMARK  160  A    between atoms: _367  and  _368
REMARK  161  A    between atoms: _374  and  _376
REMARK  162  A    between atoms: _376  and  _377
REMARK  163  A    between atoms: _376  and  _379
REMARK  164  A    between atoms: _379  and  _380
REMARK  165  A    between atoms: _385  and  _386
REMARK  166  A    between atoms: _388  and  _390
REMARK  167  A    between atoms: _390  and  _391
REMARK  168  A    between atoms: _390  and  _393
REMARK  169  A    between atoms: _393  and  _394
REMARK  170  A    between atoms: _396  and  _398
REMARK  171  A    between atoms: _398  and  _399
REMARK  172  A    between atoms: _398  and  _401
REMARK  173  A    between atoms: _401  and  _402
REMARK  174  A    between atoms: _407  and  _408
REMARK  175  A    between atoms: _410  and  _412
REMARK  176  A    between atoms: _412  and  _413
REMARK  177  A    between atoms: _412  and  _415
REMARK  178  A    between atoms: _418  and  _420
REMARK  179  A    between atoms: _420  and  _421
REMARK  180  A    between atoms: _420  and  _423
REMARK  181  A    between atoms: _423  and  _424
REMARK  182  A    between atoms: _427  and  _429
REMARK  183  A    between atoms: _429  and  _430
REMARK  184  A    between atoms: _429  and  _432
REMARK  185  A    between atoms: _435  and  _437
REMARK  186  A    between atoms: _437  and  _438
REMARK  187  A    between atoms: _437  and  _440
REMARK  188  A    between atoms: _440  and  _441
REMARK  189  A    between atoms: _444  and  _446
REMARK  190  A    between atoms: _446  and  _447
REMARK  191  A    between atoms: _446  and  _449
REMARK  192  A    between atoms: _449  and  _450
REMARK  193  A    between atoms: _453  and  _455
REMARK  194  A    between atoms: _455  and  _456
REMARK  195  A    between atoms: _455  and  _458
REMARK  196  A    between atoms: _458  and  _459
REMARK  197  A    between atoms: _459  and  _460
REMARK  198  A    between atoms: _460  and  _461
REMARK  199  A    between atoms: _461  and  _462
REMARK  200  A    between atoms: _466  and  _468
REMARK  201  A    between atoms: _468  and  _469
REMARK  202  A    between atoms: _468  and  _471
REMARK  203  A    between atoms: _471  and  _472
REMARK  204  A    between atoms: _477  and  _479
REMARK  205  A    between atoms: _479  and  _480
REMARK  206  A    between atoms: _483  and  _485
REMARK  207  A    between atoms: _485  and  _486
REMARK  208  A    between atoms: _485  and  _488
REMARK  209  A    between atoms: _488  and  _489
REMARK  210  A    between atoms: _499  and  _501
REMARK  211  A    between atoms: _501  and  _502
REMARK  212  A    between atoms: _501  and  _504
REMARK  213  A    between atoms: _504  and  _505
REMARK  214  A    between atoms: _505  and  _506
REMARK  215  A    between atoms: _509  and  _511
REMARK  216  A    between atoms: _511  and  _512
REMARK  217  A    between atoms: _511  and  _514
REMARK  218  A    between atoms: _514  and  _515
REMARK  219  A    between atoms: _517  and  _519
REMARK  220  A    between atoms: _519  and  _520
REMARK  221  A    between atoms: _519  and  _522
REMARK  222  A    between atoms: _522  and  _523
REMARK  223  A    between atoms: _529  and  _531
REMARK  224  A    between atoms: _531  and  _532
REMARK  225  A    between atoms: _531  and  _534
REMARK  226  A    between atoms: _534  and  _535
REMARK  227  A    between atoms: _538  and  _540
REMARK  228  A    between atoms: _540  and  _541
REMARK  229  A    between atoms: _540  and  _543
REMARK  230  A    between atoms: _546  and  _548
REMARK  231  A    between atoms: _548  and  _549
REMARK  232  A    between atoms: _551  and  _553
REMARK  233  A    between atoms: _553  and  _554
REMARK  234  A    between atoms: _553  and  _556
REMARK  235  A    between atoms: _556  and  _557
REMARK  236  A    between atoms: _560  and  _562
REMARK  237  A    between atoms: _562  and  _563
REMARK  238  A    between atoms: _562  and  _565
REMARK  239  A    between atoms: _565  and  _566
REMARK  240  A    between atoms: _566  and  _567
REMARK  241  A    between atoms: _567  and  _568
REMARK  242  A    between atoms: _568  and  _569
REMARK  243  A    between atoms: _573  and  _575
REMARK  244  A    between atoms: _575  and  _576
REMARK  245  A    between atoms: _575  and  _578
REMARK                            x       y       z     vdW  Elec       q    Type
REMARK                         _______ _______ _______ _____ _____    ______ ____
ROOT
ATOM      1  O   HOH     1      -0.225  38.440  25.042  0.00  0.00    +0.000 OA
ENDROOT
TORSDOF 0
REMARK  Name = ../refined-set-2016/2qg2/2qg2_pocket.pdb
REMARK  245 active torsions:
REMARK  status: ('A' for Active; 'I' for Inactive)
REMARK    1  A    between atoms: _1  and  _3
REMARK    2  A    between atoms: _3  and  _4
REMARK    3  A    between atoms: _3  and  _6
REMARK    4  A    between atoms: _6  and  _7
REMARK    5  A    between atoms: _13  and  _15
REMARK    6  A    between atoms: _15  and  _16
REMARK    7  A    between atoms: _15  and  _18
REMARK    8  A    between atoms: _18  and  _19
REMARK    9  A    between atoms: _22  and  _24
REMARK   10  A    between atoms: _24  and  _25
REMARK   11  A    between atoms: _24  and  _27
REMARK   12  A    between atoms: _27  and  _28
REMARK   13  A    between atoms: _31  and  _33
REMARK   14  A    between atoms: _33  and  _34
REMARK   15  A    between atoms: _33  and  _36
REMARK   16  A    between atoms: _36  and  _37
REMARK   17  A    between atoms: _37  and  _38
REMARK   18  A    between atoms: _41  and  _43
REMARK   19  A    between atoms: _43  and  _44
REMARK   20  A    between atoms: _43  and  _46
REMARK   21  A    between atoms: _46  and  _47
REMARK   22  A    between atoms: _50  and  _52
REMARK   23  A    between atoms: _52  and  _53
REMARK   24  A    between atoms: _52  and  _55
REMARK   25  A    between atoms: _55  and  _56
REMARK   26  A    between atoms: _59  and  _61
REMARK   27  A    between atoms: _61  and  _62
REMARK   28  A    between atoms: _61  and  _64
REMARK   29  A    between atoms: _64  and  _65
REMARK   30  A    between atoms: _67  and  _69
REMARK   31  A    between atoms: _69  and  _70
REMARK   32  A    between atoms: _69  and  _72
REMARK   33  A    between atoms: _72  and  _73
REMARK   34  A    between atoms: _78  and  _80
REMARK   35  A    between atoms: _80  and  _81
REMARK   36  A    between atoms: _80  and  _83
REMARK   37  A    between atoms: _83  and  _84
REMARK   38  A    between atoms: _86  and  _88
REMARK   39  A    between atoms: _88  and  _89
REMARK   40  A    between atoms: _88  and  _91
REMARK   41  A    between atoms: _91  and  _92
REMARK   42  A    between atoms: _94  and  _96
REMARK   43  A    between atoms: _96  and  _97
REMARK   44  A    between atoms: _96  and  _99
REMARK   45  A    between atoms: _99  and  _100
REMARK   46  A    between atoms: _103  and  _105
REMARK   47  A    between atoms: _105  and  _106
REMARK   48  A    between atoms: _109  and  _111
REMARK   49  A    between atoms: _111  and  _112
REMARK   50  A    between atoms: _111  and  _114
REMARK   51  A    between atoms: _114  and  _115
REMARK   52  A    between atoms: _118  and  _120
REMARK   53  A    between atoms: _120  and  _121
REMARK   54  A    between atoms: _120  and  _123
REMARK   55  A    between atoms: _123  and  _124
REMARK   56  A    between atoms: _124  and  _125
REMARK   57  A    between atoms: _125  and  _126
REMARK   58  A    between atoms: _126  and  _127
REMARK   59  A    between atoms: _131  and  _133
REMARK   60  A    between atoms: _133  and  _134
REMARK   61  A    between atoms: _133  and  _136
REMARK   62  A    between atoms: _136  and  _137
REMARK   63  A    between atoms: _140  and  _142
REMARK   64  A    between atoms: _142  and  _143
REMARK   65  A    between atoms: _142  and  _145
REMARK   66  A    between atoms: _145  and  _146
REMARK   67  A    between atoms: _149  and  _151
REMARK   68  A    between atoms: _151  and  _152
REMARK   69  A    between atoms: _151  and  _154
REMARK   70  A    between atoms: _157  and  _159
REMARK   71  A    between atoms: _159  and  _160
REMARK   72  A    between atoms: _159  and  _162
REMARK   73  A    between atoms: _162  and  _163
REMARK   74  A    between atoms: _166  and  _168
REMARK   75  A    between atoms: _168  and  _169
REMARK   76  A    between atoms: _168  and  _171
REMARK   77  A    between atoms: _171  and  _172
REMARK   78  A    between atoms: _175  and  _177
REMARK   79  A    between atoms: _177  and  _178
REMARK   80  A    between atoms: _180  and  _182
REMARK   81  A    between atoms: _182  and  _183
REMARK   82  A    between atoms: _182  and  _185
REMARK   83  A    between atoms: _185  and  _186
REMARK   84  A    between atoms: _189  and  _191
REMARK   85  A    between atoms: _191  and  _192
REMARK   86  A    between atoms: _194  and  _196
REMARK   87  A    between atoms: _196  and  _197
REMARK   88  A    between atoms: _196  and  _199
REMARK   89  A    between atoms: _199  and  _200
REMARK   90  A    between atoms: _200  and  _201
REMARK   91  A    between atoms: _203  and  _205
REMARK   92  A    between atoms: _205  and  _206
REMARK   93  A    between atoms: _205  and  _208
REMARK   94  A    between atoms: _208  and  _209
REMARK   95  A    between atoms: _212  and  _214
REMARK   96  A    between atoms: _214  and  _215
REMARK   97  A    between atoms: _218  and  _220
REMARK   98  A    between atoms: _220  and  _221
REMARK   99  A    between atoms: _220  and  _223
REMARK  100  A    between atoms: _223  and  _224
REMARK  101  A    between atoms: _227  and  _229
REMARK  102  A    between atoms: _229  and  _230
REMARK  103  A    between atoms: _229  and  _232
REMARK  104  A    between atoms: _232  and  _233
REMARK  105  A    between atoms: _236  and  _238
REMARK  106  A    between atoms: _238  and  _239
REMARK  107  A    between atoms: _238  and  _241
REMARK  108  A    between atoms: _241  and  _242
REMARK  109  A    between atoms: _245  and  _247
REMARK  110  A    between atoms: _247  and  _248
REMARK  111  A    between atoms: _247  and  _250
REMARK  112  A    between atoms: _250  and  _251
REMARK  113  A    between atoms: _256  and  _258
REMARK  114  A    between atoms: _258  and  _259
REMARK  115  A    between atoms: _258  and  _261
REMARK  116  A    between atoms: _261  and  _262
REMARK  117  A    between atoms: _267  and  _269
REMARK  118  A    between atoms: _269  and  _270
REMARK  119  A    between atoms: _269  and  _272
REMARK  120  A    between atoms: _272  and  _273
REMARK  121  A    between atoms: _276  and  _278
REMARK  122  A    between atoms: _278  and  _279
REMARK  123  A    between atoms: _281  and  _283
REMARK  124  A    between atoms: _283  and  _284
REMARK  125  A    between atoms: _283  and  _286
REMARK  126  A    between atoms: _286  and  _287
REMARK  127  A    between atoms: _290  and  _292
REMARK  128  A    between atoms: _292  and  _293
REMARK  129  A    between atoms: _292  and  _295
REMARK  130  A    between atoms: _295  and  _296
REMARK  131  A    between atoms: _299  and  _301
REMARK  132  A    between atoms: _301  and  _302
REMARK  133  A    between atoms: _305  and  _307
REMARK  134  A    between atoms: _307  and  _308
REMARK  135  A    between atoms: _307  and  _310
REMARK  136  A    between atoms: _310  and  _311
REMARK  137  A    between atoms: _311  and  _312
REMARK  138  A    between atoms: _312  and  _313
REMARK  139  A    between atoms: _313  and  _314
REMARK  140  A    between atoms: _318  and  _320
REMARK  141  A    between atoms: _320  and  _321
REMARK  142  A    between atoms: _323  and  _325
REMARK  143  A    between atoms: _325  and  _326
REMARK  144  A    between atoms: _325  and  _328
REMARK  145  A    between atoms: _328  and  _329
REMARK  146  A    between atoms: _332  and  _334
REMARK  147  A    between atoms: _334  and  _335
REMARK  148  A    between atoms: _334  and  _337
REMARK  149  A    between atoms: _337  and  _338
REMARK  150  A    between atoms: _344  and  _346
REMARK  151  A    between atoms: _346  and  _347
REMARK  152  A    between atoms: _349  and  _351
REMARK  153  A    between atoms: _351  and  _352
REMARK  154  A    between atoms: _351  and  _354
REMARK  155  A    between atoms: _357  and  _359
REMARK  156  A    between atoms: _359  and  _360
REMARK  157  A    between atoms: _362  and  _364
REMARK  158  A    between atoms: _364  and  _365
REMARK  159  A    between atoms: _364  and  _367
REMARK  160  A    between atoms: _367  and  _368
REMARK  161  A    between atoms: _374  and  _376
REMARK  162  A    between atoms: _376  and  _377
REMARK  163  A    between atoms: _376  and  _379
REMARK  164  A    between atoms: _379  and  _380
REMARK  165  A    between atoms: _385  and  _386
REMARK  166  A    between atoms: _388  and  _390
REMARK  167  A    between atoms: _390  and  _391
REMARK  168  A    between atoms: _390  and  _393
REMARK  169  A    between atoms: _393  and  _394
REMARK  170  A    between atoms: _396  and  _398
REMARK  171  A    between atoms: _398  and  _399
REMARK  172  A    between atoms: _398  and  _401
REMARK  173  A    between atoms: _401  and  _402
REMARK  174  A    between atoms: _407  and  _408
REMARK  175  A    between atoms: _410  and  _412
REMARK  176  A    between atoms: _412  and  _413
REMARK  177  A    between atoms: _412  and  _415
REMARK  178  A    between atoms: _418  and  _420
REMARK  179  A    between atoms: _420  and  _421
REMARK  180  A    between atoms: _420  and  _423
REMARK  181  A    between atoms: _423  and  _424
REMARK  182  A    between atoms: _427  and  _429
REMARK  183  A    between atoms: _429  and  _430
REMARK  184  A    between atoms: _429  and  _432
REMARK  185  A    between atoms: _435  and  _437
REMARK  186  A    between atoms: _437  and  _438
REMARK  187  A    between atoms: _437  and  _440
REMARK  188  A    between atoms: _440  and  _441
REMARK  189  A    between atoms: _444  and  _446
REMARK  190  A    between atoms: _446  and  _447
REMARK  191  A    between atoms: _446  and  _449
REMARK  192  A    between atoms: _449  and  _450
REMARK  193  A    between atoms: _453  and  _455
REMARK  194  A    between atoms: _455  and  _456
REMARK  195  A    between atoms: _455  and  _458
REMARK  196  A    between atoms: _458  and  _459
REMARK  197  A    between atoms: _459  and  _460
REMARK  198  A    between atoms: _460  and  _461
REMARK  199  A    between atoms: _461  and  _462
REMARK  200  A    between atoms: _466  and  _468
REMARK  201  A    between atoms: _468  and  _469
REMARK  202  A    between atoms: _468  and  _471
REMARK  203  A    between atoms: _471  and  _472
REMARK  204  A    between atoms: _477  and  _479
REMARK  205  A    between atoms: _479  and  _480
REMARK  206  A    between atoms: _483  and  _485
REMARK  207  A    between atoms: _485  and  _486
REMARK  208  A    between atoms: _485  and  _488
REMARK  209  A    between atoms: _488  and  _489
REMARK  210  A    between atoms: _499  and  _501
REMARK  211  A    between atoms: _501  and  _502
REMARK  212  A    between atoms: _501  and  _504
REMARK  213  A    between atoms: _504  and  _505
REMARK  214  A    between atoms: _505  and  _506
REMARK  215  A    between atoms: _509  and  _511
REMARK  216  A    between atoms: _511  and  _512
REMARK  217  A    between atoms: _511  and  _514
REMARK  218  A    between atoms: _514  and  _515
REMARK  219  A    between atoms: _517  and  _519
REMARK  220  A    between atoms: _519  and  _520
REMARK  221  A    between atoms: _519  and  _522
REMARK  222  A    between atoms: _522  and  _523
REMARK  223  A    between atoms: _529  and  _531
REMARK  224  A    between atoms: _531  and  _532
REMARK  225  A    between atoms: _531  and  _534
REMARK  226  A    between atoms: _534  and  _535
REMARK  227  A    between atoms: _538  and  _540
REMARK  228  A    between atoms: _540  and  _541
REMARK  229  A    between atoms: _540  and  _543
REMARK  230  A    between atoms: _546  and  _548
REMARK  231  A    between atoms: _548  and  _549
REMARK  232  A    between atoms: _551  and  _553
REMARK  233  A    between atoms: _553  and  _554
REMARK  234  A    between atoms: _553  and  _556
REMARK  235  A    between atoms: _556  and  _557
REMARK  236  A    between atoms: _560  and  _562
REMARK  237  A    between atoms: _562  and  _563
REMARK  238  A    between atoms: _562  and  _565
REMARK  239  A    between atoms: _565  and  _566
REMARK  240  A    between atoms: _566  and  _567
REMARK  241  A    between atoms: _567  and  _568
REMARK  242  A    between atoms: _568  and  _569
REMARK  243  A    between atoms: _573  and  _575
REMARK  244  A    between atoms: _575  and  _576
REMARK  245  A    between atoms: _575  and  _578
REMARK                            x       y       z     vdW  Elec       q    Type
REMARK                         _______ _______ _______ _____ _____    ______ ____
ROOT
ATOM      1  O   HOH     1      11.410  31.223  22.416  0.00  0.00    +0.000 OA
ENDROOT
TORSDOF 0
REMARK  Name = ../refined-set-2016/2qg2/2qg2_pocket.pdb
REMARK  245 active torsions:
REMARK  status: ('A' for Active; 'I' for Inactive)
REMARK    1  A    between atoms: _1  and  _3
REMARK    2  A    between atoms: _3  and  _4
REMARK    3  A    between atoms: _3  and  _6
REMARK    4  A    between atoms: _6  and  _7
REMARK    5  A    between atoms: _13  and  _15
REMARK    6  A    between atoms: _15  and  _16
REMARK    7  A    between atoms: _15  and  _18
REMARK    8  A    between atoms: _18  and  _19
REMARK    9  A    between atoms: _22  and  _24
REMARK   10  A    between atoms: _24  and  _25
REMARK   11  A    between atoms: _24  and  _27
REMARK   12  A    between atoms: _27  and  _28
REMARK   13  A    between atoms: _31  and  _33
REMARK   14  A    between atoms: _33  and  _34
REMARK   15  A    between atoms: _33  and  _36
REMARK   16  A    between atoms: _36  and  _37
REMARK   17  A    between atoms: _37  and  _38
REMARK   18  A    between atoms: _41  and  _43
REMARK   19  A    between atoms: _43  and  _44
REMARK   20  A    between atoms: _43  and  _46
REMARK   21  A    between atoms: _46  and  _47
REMARK   22  A    between atoms: _50  and  _52
REMARK   23  A    between atoms: _52  and  _53
REMARK   24  A    between atoms: _52  and  _55
REMARK   25  A    between atoms: _55  and  _56
REMARK   26  A    between atoms: _59  and  _61
REMARK   27  A    between atoms: _61  and  _62
REMARK   28  A    between atoms: _61  and  _64
REMARK   29  A    between atoms: _64  and  _65
REMARK   30  A    between atoms: _67  and  _69
REMARK   31  A    between atoms: _69  and  _70
REMARK   32  A    between atoms: _69  and  _72
REMARK   33  A    between atoms: _72  and  _73
REMARK   34  A    between atoms: _78  and  _80
REMARK   35  A    between atoms: _80  and  _81
REMARK   36  A    between atoms: _80  and  _83
REMARK   37  A    between atoms: _83  and  _84
REMARK   38  A    between atoms: _86  and  _88
REMARK   39  A    between atoms: _88  and  _89
REMARK   40  A    between atoms: _88  and  _91
REMARK   41  A    between atoms: _91  and  _92
REMARK   42  A    between atoms: _94  and  _96
REMARK   43  A    between atoms: _96  and  _97
REMARK   44  A    between atoms: _96  and  _99
REMARK   45  A    between atoms: _99  and  _100
REMARK   46  A    between atoms: _103  and  _105
REMARK   47  A    between atoms: _105  and  _106
REMARK   48  A    between atoms: _109  and  _111
REMARK   49  A    between atoms: _111  and  _112
REMARK   50  A    between atoms: _111  and  _114
REMARK   51  A    between atoms: _114  and  _115
REMARK   52  A    between atoms: _118  and  _120
REMARK   53  A    between atoms: _120  and  _121
REMARK   54  A    between atoms: _120  and  _123
REMARK   55  A    between atoms: _123  and  _124
REMARK   56  A    between atoms: _124  and  _125
REMARK   57  A    between atoms: _125  and  _126
REMARK   58  A    between atoms: _126  and  _127
REMARK   59  A    between atoms: _131  and  _133
REMARK   60  A    between atoms: _133  and  _134
REMARK   61  A    between atoms: _133  and  _136
REMARK   62  A    between atoms: _136  and  _137
REMARK   63  A    between atoms: _140  and  _142
REMARK   64  A    between atoms: _142  and  _143
REMARK   65  A    between atoms: _142  and  _145
REMARK   66  A    between atoms: _145  and  _146
REMARK   67  A    between atoms: _149  and  _151
REMARK   68  A    between atoms: _151  and  _152
REMARK   69  A    between atoms: _151  and  _154
REMARK   70  A    between atoms: _157  and  _159
REMARK   71  A    between atoms: _159  and  _160
REMARK   72  A    between atoms: _159  and  _162
REMARK   73  A    between atoms: _162  and  _163
REMARK   74  A    between atoms: _166  and  _168
REMARK   75  A    between atoms: _168  and  _169
REMARK   76  A    between atoms: _168  and  _171
REMARK   77  A    between atoms: _171  and  _172
REMARK   78  A    between atoms: _175  and  _177
REMARK   79  A    between atoms: _177  and  _178
REMARK   80  A    between atoms: _180  and  _182
REMARK   81  A    between atoms: _182  and  _183
REMARK   82  A    between atoms: _182  and  _185
REMARK   83  A    between atoms: _185  and  _186
REMARK   84  A    between atoms: _189  and  _191
REMARK   85  A    between atoms: _191  and  _192
REMARK   86  A    between atoms: _194  and  _196
REMARK   87  A    between atoms: _196  and  _197
REMARK   88  A    between atoms: _196  and  _199
REMARK   89  A    between atoms: _199  and  _200
REMARK   90  A    between atoms: _200  and  _201
REMARK   91  A    between atoms: _203  and  _205
REMARK   92  A    between atoms: _205  and  _206
REMARK   93  A    between atoms: _205  and  _208
REMARK   94  A    between atoms: _208  and  _209
REMARK   95  A    between atoms: _212  and  _214
REMARK   96  A    between atoms: _214  and  _215
REMARK   97  A    between atoms: _218  and  _220
REMARK   98  A    between atoms: _220  and  _221
REMARK   99  A    between atoms: _220  and  _223
REMARK  100  A    between atoms: _223  and  _224
REMARK  101  A    between atoms: _227  and  _229
REMARK  102  A    between atoms: _229  and  _230
REMARK  103  A    between atoms: _229  and  _232
REMARK  104  A    between atoms: _232  and  _233
REMARK  105  A    between atoms: _236  and  _238
REMARK  106  A    between atoms: _238  and  _239
REMARK  107  A    between atoms: _238  and  _241
REMARK  108  A    between atoms: _241  and  _242
REMARK  109  A    between atoms: _245  and  _247
REMARK  110  A    between atoms: _247  and  _248
REMARK  111  A    between atoms: _247  and  _250
REMARK  112  A    between atoms: _250  and  _251
REMARK  113  A    between atoms: _256  and  _258
REMARK  114  A    between atoms: _258  and  _259
REMARK  115  A    between atoms: _258  and  _261
REMARK  116  A    between atoms: _261  and  _262
REMARK  117  A    between atoms: _267  and  _269
REMARK  118  A    between atoms: _269  and  _270
REMARK  119  A    between atoms: _269  and  _272
REMARK  120  A    between atoms: _272  and  _273
REMARK  121  A    between atoms: _276  and  _278
REMARK  122  A    between atoms: _278  and  _279
REMARK  123  A    between atoms: _281  and  _283
REMARK  124  A    between atoms: _283  and  _284
REMARK  125  A    between atoms: _283  and  _286
REMARK  126  A    between atoms: _286  and  _287
REMARK  127  A    between atoms: _290  and  _292
REMARK  128  A    between atoms: _292  and  _293
REMARK  129  A    between atoms: _292  and  _295
REMARK  130  A    between atoms: _295  and  _296
REMARK  131  A    between atoms: _299  and  _301
REMARK  132  A    between atoms: _301  and  _302
REMARK  133  A    between atoms: _305  and  _307
REMARK  134  A    between atoms: _307  and  _308
REMARK  135  A    between atoms: _307  and  _310
REMARK  136  A    between atoms: _310  and  _311
REMARK  137  A    between atoms: _311  and  _312
REMARK  138  A    between atoms: _312  and  _313
REMARK  139  A    between atoms: _313  and  _314
REMARK  140  A    between atoms: _318  and  _320
REMARK  141  A    between atoms: _320  and  _321
REMARK  142  A    between atoms: _323  and  _325
REMARK  143  A    between atoms: _325  and  _326
REMARK  144  A    between atoms: _325  and  _328
REMARK  145  A    between atoms: _328  and  _329
REMARK  146  A    between atoms: _332  and  _334
REMARK  147  A    between atoms: _334  and  _335
REMARK  148  A    between atoms: _334  and  _337
REMARK  149  A    between atoms: _337  and  _338
REMARK  150  A    between atoms: _344  and  _346
REMARK  151  A    between atoms: _346  and  _347
REMARK  152  A    between atoms: _349  and  _351
REMARK  153  A    between atoms: _351  and  _352
REMARK  154  A    between atoms: _351  and  _354
REMARK  155  A    between atoms: _357  and  _359
REMARK  156  A    between atoms: _359  and  _360
REMARK  157  A    between atoms: _362  and  _364
REMARK  158  A    between atoms: _364  and  _365
REMARK  159  A    between atoms: _364  and  _367
REMARK  160  A    between atoms: _367  and  _368
REMARK  161  A    between atoms: _374  and  _376
REMARK  162  A    between atoms: _376  and  _377
REMARK  163  A    between atoms: _376  and  _379
REMARK  164  A    between atoms: _379  and  _380
REMARK  165  A    between atoms: _385  and  _386
REMARK  166  A    between atoms: _388  and  _390
REMARK  167  A    between atoms: _390  and  _391
REMARK  168  A    between atoms: _390  and  _393
REMARK  169  A    between atoms: _393  and  _394
REMARK  170  A    between atoms: _396  and  _398
REMARK  171  A    between atoms: _398  and  _399
REMARK  172  A    between atoms: _398  and  _401
REMARK  173  A    between atoms: _401  and  _402
REMARK  174  A    between atoms: _407  and  _408
REMARK  175  A    between atoms: _410  and  _412
REMARK  176  A    between atoms: _412  and  _413
REMARK  177  A    between atoms: _412  and  _415
REMARK  178  A    between atoms: _418  and  _420
REMARK  179  A    between atoms: _420  and  _421
REMARK  180  A    between atoms: _420  and  _423
REMARK  181  A    between atoms: _423  and  _424
REMARK  182  A    between atoms: _427  and  _429
REMARK  183  A    between atoms: _429  and  _430
REMARK  184  A    between atoms: _429  and  _432
REMARK  185  A    between atoms: _435  and  _437
REMARK  186  A    between atoms: _437  and  _438
REMARK  187  A    between atoms: _437  and  _440
REMARK  188  A    between atoms: _440  and  _441
REMARK  189  A    between atoms: _444  and  _446
REMARK  190  A    between atoms: _446  and  _447
REMARK  191  A    between atoms: _446  and  _449
REMARK  192  A    between atoms: _449  and  _450
REMARK  193  A    between atoms: _453  and  _455
REMARK  194  A    between atoms: _455  and  _456
REMARK  195  A    between atoms: _455  and  _458
REMARK  196  A    between atoms: _458  and  _459
REMARK  197  A    between atoms: _459  and  _460
REMARK  198  A    between atoms: _460  and  _461
REMARK  199  A    between atoms: _461  and  _462
REMARK  200  A    between atoms: _466  and  _468
REMARK  201  A    between atoms: _468  and  _469
REMARK  202  A    between atoms: _468  and  _471
REMARK  203  A    between atoms: _471  and  _472
REMARK  204  A    between atoms: _477  and  _479
REMARK  205  A    between atoms: _479  and  _480
REMARK  206  A    between atoms: _483  and  _485
REMARK  207  A    between atoms: _485  and  _486
REMARK  208  A    between atoms: _485  and  _488
REMARK  209  A    between atoms: _488  and  _489
REMARK  210  A    between atoms: _499  and  _501
REMARK  211  A    between atoms: _501  and  _502
REMARK  212  A    between atoms: _501  and  _504
REMARK  213  A    between atoms: _504  and  _505
REMARK  214  A    between atoms: _505  and  _506
REMARK  215  A    between atoms: _509  and  _511
REMARK  216  A    between atoms: _511  and  _512
REMARK  217  A    between atoms: _511  and  _514
REMARK  218  A    between atoms: _514  and  _515
REMARK  219  A    between atoms: _517  and  _519
REMARK  220  A    between atoms: _519  and  _520
REMARK  221  A    between atoms: _519  and  _522
REMARK  222  A    between atoms: _522  and  _523
REMARK  223  A    between atoms: _529  and  _531
REMARK  224  A    between atoms: _531  and  _532
REMARK  225  A    between atoms: _531  and  _534
REMARK  226  A    between atoms: _534  and  _535
REMARK  227  A    between atoms: _538  and  _540
REMARK  228  A    between atoms: _540  and  _541
REMARK  229  A    between atoms: _540  and  _543
REMARK  230  A    between atoms: _546  and  _548
REMARK  231  A    between atoms: _548  and  _549
REMARK  232  A    between atoms: _551  and  _553
REMARK  233  A    between atoms: _553  and  _554
REMARK  234  A    between atoms: _553  and  _556
REMARK  235  A    between atoms: _556  and  _557
REMARK  236  A    between atoms: _560  and  _562
REMARK  237  A    between atoms: _562  and  _563
REMARK  238  A    between atoms: _562  and  _565
REMARK  239  A    between atoms: _565  and  _566
REMARK  240  A    between atoms: _566  and  _567
REMARK  241  A    between atoms: _567  and  _568
REMARK  242  A    between atoms: _568  and  _569
REMARK  243  A    between atoms: _573  and  _575
REMARK  244  A    between atoms: _575  and  _576
REMARK  245  A    between atoms: _575  and  _578
REMARK                            x       y       z     vdW  Elec       q    Type
REMARK                         _______ _______ _______ _____ _____    ______ ____
ROOT
ATOM      1  O   HOH     1      11.216  41.580  27.634  0.00  0.00    +0.000 OA
ENDROOT
TORSDOF 0
REMARK  Name = ../refined-set-2016/2qg2/2qg2_pocket.pdb
REMARK  245 active torsions:
REMARK  status: ('A' for Active; 'I' for Inactive)
REMARK    1  A    between atoms: _1  and  _3
REMARK    2  A    between atoms: _3  and  _4
REMARK    3  A    between atoms: _3  and  _6
REMARK    4  A    between atoms: _6  and  _7
REMARK    5  A    between atoms: _13  and  _15
REMARK    6  A    between atoms: _15  and  _16
REMARK    7  A    between atoms: _15  and  _18
REMARK    8  A    between atoms: _18  and  _19
REMARK    9  A    between atoms: _22  and  _24
REMARK   10  A    between atoms: _24  and  _25
REMARK   11  A    between atoms: _24  and  _27
REMARK   12  A    between atoms: _27  and  _28
REMARK   13  A    between atoms: _31  and  _33
REMARK   14  A    between atoms: _33  and  _34
REMARK   15  A    between atoms: _33  and  _36
REMARK   16  A    between atoms: _36  and  _37
REMARK   17  A    between atoms: _37  and  _38
REMARK   18  A    between atoms: _41  and  _43
REMARK   19  A    between atoms: _43  and  _44
REMARK   20  A    between atoms: _43  and  _46
REMARK   21  A    between atoms: _46  and  _47
REMARK   22  A    between atoms: _50  and  _52
REMARK   23  A    between atoms: _52  and  _53
REMARK   24  A    between atoms: _52  and  _55
REMARK   25  A    between atoms: _55  and  _56
REMARK   26  A    between atoms: _59  and  _61
REMARK   27  A    between atoms: _61  and  _62
REMARK   28  A    between atoms: _61  and  _64
REMARK   29  A    between atoms: _64  and  _65
REMARK   30  A    between atoms: _67  and  _69
REMARK   31  A    between atoms: _69  and  _70
REMARK   32  A    between atoms: _69  and  _72
REMARK   33  A    between atoms: _72  and  _73
REMARK   34  A    between atoms: _78  and  _80
REMARK   35  A    between atoms: _80  and  _81
REMARK   36  A    between atoms: _80  and  _83
REMARK   37  A    between atoms: _83  and  _84
REMARK   38  A    between atoms: _86  and  _88
REMARK   39  A    between atoms: _88  and  _89
REMARK   40  A    between atoms: _88  and  _91
REMARK   41  A    between atoms: _91  and  _92
REMARK   42  A    between atoms: _94  and  _96
REMARK   43  A    between atoms: _96  and  _97
REMARK   44  A    between atoms: _96  and  _99
REMARK   45  A    between atoms: _99  and  _100
REMARK   46  A    between atoms: _103  and  _105
REMARK   47  A    between atoms: _105  and  _106
REMARK   48  A    between atoms: _109  and  _111
REMARK   49  A    between atoms: _111  and  _112
REMARK   50  A    between atoms: _111  and  _114
REMARK   51  A    between atoms: _114  and  _115
REMARK   52  A    between atoms: _118  and  _120
REMARK   53  A    between atoms: _120  and  _121
REMARK   54  A    between atoms: _120  and  _123
REMARK   55  A    between atoms: _123  and  _124
REMARK   56  A    between atoms: _124  and  _125
REMARK   57  A    between atoms: _125  and  _126
REMARK   58  A    between atoms: _126  and  _127
REMARK   59  A    between atoms: _131  and  _133
REMARK   60  A    between atoms: _133  and  _134
REMARK   61  A    between atoms: _133  and  _136
REMARK   62  A    between atoms: _136  and  _137
REMARK   63  A    between atoms: _140  and  _142
REMARK   64  A    between atoms: _142  and  _143
REMARK   65  A    between atoms: _142  and  _145
REMARK   66  A    between atoms: _145  and  _146
REMARK   67  A    between atoms: _149  and  _151
REMARK   68  A    between atoms: _151  and  _152
REMARK   69  A    between atoms: _151  and  _154
REMARK   70  A    between atoms: _157  and  _159
REMARK   71  A    between atoms: _159  and  _160
REMARK   72  A    between atoms: _159  and  _162
REMARK   73  A    between atoms: _162  and  _163
REMARK   74  A    between atoms: _166  and  _168
REMARK   75  A    between atoms: _168  and  _169
REMARK   76  A    between atoms: _168  and  _171
REMARK   77  A    between atoms: _171  and  _172
REMARK   78  A    between atoms: _175  and  _177
REMARK   79  A    between atoms: _177  and  _178
REMARK   80  A    between atoms: _180  and  _182
REMARK   81  A    between atoms: _182  and  _183
REMARK   82  A    between atoms: _182  and  _185
REMARK   83  A    between atoms: _185  and  _186
REMARK   84  A    between atoms: _189  and  _191
REMARK   85  A    between atoms: _191  and  _192
REMARK   86  A    between atoms: _194  and  _196
REMARK   87  A    between atoms: _196  and  _197
REMARK   88  A    between atoms: _196  and  _199
REMARK   89  A    between atoms: _199  and  _200
REMARK   90  A    between atoms: _200  and  _201
REMARK   91  A    between atoms: _203  and  _205
REMARK   92  A    between atoms: _205  and  _206
REMARK   93  A    between atoms: _205  and  _208
REMARK   94  A    between atoms: _208  and  _209
REMARK   95  A    between atoms: _212  and  _214
REMARK   96  A    between atoms: _214  and  _215
REMARK   97  A    between atoms: _218  and  _220
REMARK   98  A    between atoms: _220  and  _221
REMARK   99  A    between atoms: _220  and  _223
REMARK  100  A    between atoms: _223  and  _224
REMARK  101  A    between atoms: _227  and  _229
REMARK  102  A    between atoms: _229  and  _230
REMARK  103  A    between atoms: _229  and  _232
REMARK  104  A    between atoms: _232  and  _233
REMARK  105  A    between atoms: _236  and  _238
REMARK  106  A    between atoms: _238  and  _239
REMARK  107  A    between atoms: _238  and  _241
REMARK  108  A    between atoms: _241  and  _242
REMARK  109  A    between atoms: _245  and  _247
REMARK  110  A    between atoms: _247  and  _248
REMARK  111  A    between atoms: _247  and  _250
REMARK  112  A    between atoms: _250  and  _251
REMARK  113  A    between atoms: _256  and  _258
REMARK  114  A    between atoms: _258  and  _259
REMARK  115  A    between atoms: _258  and  _261
REMARK  116  A    between atoms: _261  and  _262
REMARK  117  A    between atoms: _267  and  _269
REMARK  118  A    between atoms: _269  and  _270
REMARK  119  A    between atoms: _269  and  _272
REMARK  120  A    between atoms: _272  and  _273
REMARK  121  A    between atoms: _276  and  _278
REMARK  122  A    between atoms: _278  and  _279
REMARK  123  A    between atoms: _281  and  _283
REMARK  124  A    between atoms: _283  and  _284
REMARK  125  A    between atoms: _283  and  _286
REMARK  126  A    between atoms: _286  and  _287
REMARK  127  A    between atoms: _290  and  _292
REMARK  128  A    between atoms: _292  and  _293
REMARK  129  A    between atoms: _292  and  _295
REMARK  130  A    between atoms: _295  and  _296
REMARK  131  A    between atoms: _299  and  _301
REMARK  132  A    between atoms: _301  and  _302
REMARK  133  A    between atoms: _305  and  _307
REMARK  134  A    between atoms: _307  and  _308
REMARK  135  A    between atoms: _307  and  _310
REMARK  136  A    between atoms: _310  and  _311
REMARK  137  A    between atoms: _311  and  _312
REMARK  138  A    between atoms: _312  and  _313
REMARK  139  A    between atoms: _313  and  _314
REMARK  140  A    between atoms: _318  and  _320
REMARK  141  A    between atoms: _320  and  _321
REMARK  142  A    between atoms: _323  and  _325
REMARK  143  A    between atoms: _325  and  _326
REMARK  144  A    between atoms: _325  and  _328
REMARK  145  A    between atoms: _328  and  _329
REMARK  146  A    between atoms: _332  and  _334
REMARK  147  A    between atoms: _334  and  _335
REMARK  148  A    between atoms: _334  and  _337
REMARK  149  A    between atoms: _337  and  _338
REMARK  150  A    between atoms: _344  and  _346
REMARK  151  A    between atoms: _346  and  _347
REMARK  152  A    between atoms: _349  and  _351
REMARK  153  A    between atoms: _351  and  _352
REMARK  154  A    between atoms: _351  and  _354
REMARK  155  A    between atoms: _357  and  _359
REMARK  156  A    between atoms: _359  and  _360
REMARK  157  A    between atoms: _362  and  _364
REMARK  158  A    between atoms: _364  and  _365
REMARK  159  A    between atoms: _364  and  _367
REMARK  160  A    between atoms: _367  and  _368
REMARK  161  A    between atoms: _374  and  _376
REMARK  162  A    between atoms: _376  and  _377
REMARK  163  A    between atoms: _376  and  _379
REMARK  164  A    between atoms: _379  and  _380
REMARK  165  A    between atoms: _385  and  _386
REMARK  166  A    between atoms: _388  and  _390
REMARK  167  A    between atoms: _390  and  _391
REMARK  168  A    between atoms: _390  and  _393
REMARK  169  A    between atoms: _393  and  _394
REMARK  170  A    between atoms: _396  and  _398
REMARK  171  A    between atoms: _398  and  _399
REMARK  172  A    between atoms: _398  and  _401
REMARK  173  A    between atoms: _401  and  _402
REMARK  174  A    between atoms: _407  and  _408
REMARK  175  A    between atoms: _410  and  _412
REMARK  176  A    between atoms: _412  and  _413
REMARK  177  A    between atoms: _412  and  _415
REMARK  178  A    between atoms: _418  and  _420
REMARK  179  A    between atoms: _420  and  _421
REMARK  180  A    between atoms: _420  and  _423
REMARK  181  A    between atoms: _423  and  _424
REMARK  182  A    between atoms: _427  and  _429
REMARK  183  A    between atoms: _429  and  _430
REMARK  184  A    between atoms: _429  and  _432
REMARK  185  A    between atoms: _435  and  _437
REMARK  186  A    between atoms: _437  and  _438
REMARK  187  A    between atoms: _437  and  _440
REMARK  188  A    between atoms: _440  and  _441
REMARK  189  A    between atoms: _444  and  _446
REMARK  190  A    between atoms: _446  and  _447
REMARK  191  A    between atoms: _446  and  _449
REMARK  192  A    between atoms: _449  and  _450
REMARK  193  A    between atoms: _453  and  _455
REMARK  194  A    between atoms: _455  and  _456
REMARK  195  A    between atoms: _455  and  _458
REMARK  196  A    between atoms: _458  and  _459
REMARK  197  A    between atoms: _459  and  _460
REMARK  198  A    between atoms: _460  and  _461
REMARK  199  A    between atoms: _461  and  _462
REMARK  200  A    between atoms: _466  and  _468
REMARK  201  A    between atoms: _468  and  _469
REMARK  202  A    between atoms: _468  and  _471
REMARK  203  A    between atoms: _471  and  _472
REMARK  204  A    between atoms: _477  and  _479
REMARK  205  A    between atoms: _479  and  _480
REMARK  206  A    between atoms: _483  and  _485
REMARK  207  A    between atoms: _485  and  _486
REMARK  208  A    between atoms: _485  and  _488
REMARK  209  A    between atoms: _488  and  _489
REMARK  210  A    between atoms: _499  and  _501
REMARK  211  A    between atoms: _501  and  _502
REMARK  212  A    between atoms: _501  and  _504
REMARK  213  A    between atoms: _504  and  _505
REMARK  214  A    between atoms: _505  and  _506
REMARK  215  A    between atoms: _509  and  _511
REMARK  216  A    between atoms: _511  and  _512
REMARK  217  A    between atoms: _511  and  _514
REMARK  218  A    between atoms: _514  and  _515
REMARK  219  A    between atoms: _517  and  _519
REMARK  220  A    between atoms: _519  and  _520
REMARK  221  A    between atoms: _519  and  _522
REMARK  222  A    between atoms: _522  and  _523
REMARK  223  A    between atoms: _529  and  _531
REMARK  224  A    between atoms: _531  and  _532
REMARK  225  A    between atoms: _531  and  _534
REMARK  226  A    between atoms: _534  and  _535
REMARK  227  A    between atoms: _538  and  _540
REMARK  228  A    between atoms: _540  and  _541
REMARK  229  A    between atoms: _540  and  _543
REMARK  230  A    between atoms: _546  and  _548
REMARK  231  A    between atoms: _548  and  _549
REMARK  232  A    between atoms: _551  and  _553
REMARK  233  A    between atoms: _553  and  _554
REMARK  234  A    between atoms: _553  and  _556
REMARK  235  A    between atoms: _556  and  _557
REMARK  236  A    between atoms: _560  and  _562
REMARK  237  A    between atoms: _562  and  _563
REMARK  238  A    between atoms: _562  and  _565
REMARK  239  A    between atoms: _565  and  _566
REMARK  240  A    between atoms: _566  and  _567
REMARK  241  A    between atoms: _567  and  _568
REMARK  242  A    between atoms: _568  and  _569
REMARK  243  A    between atoms: _573  and  _575
REMARK  244  A    between atoms: _575  and  _576
REMARK  245  A    between atoms: _575  and  _578
REMARK                            x       y       z     vdW  Elec       q    Type
REMARK                         _______ _______ _______ _____ _____    ______ ____
ROOT
ATOM      1  O   HOH     1       8.801  39.803  26.808  0.00  0.00    +0.000 OA
ENDROOT
TORSDOF 0
REMARK  Name = ../refined-set-2016/2qg2/2qg2_pocket.pdb
REMARK  245 active torsions:
REMARK  status: ('A' for Active; 'I' for Inactive)
REMARK    1  A    between atoms: _1  and  _3
REMARK    2  A    between atoms: _3  and  _4
REMARK    3  A    between atoms: _3  and  _6
REMARK    4  A    between atoms: _6  and  _7
REMARK    5  A    between atoms: _13  and  _15
REMARK    6  A    between atoms: _15  and  _16
REMARK    7  A    between atoms: _15  and  _18
REMARK    8  A    between atoms: _18  and  _19
REMARK    9  A    between atoms: _22  and  _24
REMARK   10  A    between atoms: _24  and  _25
REMARK   11  A    between atoms: _24  and  _27
REMARK   12  A    between atoms: _27  and  _28
REMARK   13  A    between atoms: _31  and  _33
REMARK   14  A    between atoms: _33  and  _34
REMARK   15  A    between atoms: _33  and  _36
REMARK   16  A    between atoms: _36  and  _37
REMARK   17  A    between atoms: _37  and  _38
REMARK   18  A    between atoms: _41  and  _43
REMARK   19  A    between atoms: _43  and  _44
REMARK   20  A    between atoms: _43  and  _46
REMARK   21  A    between atoms: _46  and  _47
REMARK   22  A    between atoms: _50  and  _52
REMARK   23  A    between atoms: _52  and  _53
REMARK   24  A    between atoms: _52  and  _55
REMARK   25  A    between atoms: _55  and  _56
REMARK   26  A    between atoms: _59  and  _61
REMARK   27  A    between atoms: _61  and  _62
REMARK   28  A    between atoms: _61  and  _64
REMARK   29  A    between atoms: _64  and  _65
REMARK   30  A    between atoms: _67  and  _69
REMARK   31  A    between atoms: _69  and  _70
REMARK   32  A    between atoms: _69  and  _72
REMARK   33  A    between atoms: _72  and  _73
REMARK   34  A    between atoms: _78  and  _80
REMARK   35  A    between atoms: _80  and  _81
REMARK   36  A    between atoms: _80  and  _83
REMARK   37  A    between atoms: _83  and  _84
REMARK   38  A    between atoms: _86  and  _88
REMARK   39  A    between atoms: _88  and  _89
REMARK   40  A    between atoms: _88  and  _91
REMARK   41  A    between atoms: _91  and  _92
REMARK   42  A    between atoms: _94  and  _96
REMARK   43  A    between atoms: _96  and  _97
REMARK   44  A    between atoms: _96  and  _99
REMARK   45  A    between atoms: _99  and  _100
REMARK   46  A    between atoms: _103  and  _105
REMARK   47  A    between atoms: _105  and  _106
REMARK   48  A    between atoms: _109  and  _111
REMARK   49  A    between atoms: _111  and  _112
REMARK   50  A    between atoms: _111  and  _114
REMARK   51  A    between atoms: _114  and  _115
REMARK   52  A    between atoms: _118  and  _120
REMARK   53  A    between atoms: _120  and  _121
REMARK   54  A    between atoms: _120  and  _123
REMARK   55  A    between atoms: _123  and  _124
REMARK   56  A    between atoms: _124  and  _125
REMARK   57  A    between atoms: _125  and  _126
REMARK   58  A    between atoms: _126  and  _127
REMARK   59  A    between atoms: _131  and  _133
REMARK   60  A    between atoms: _133  and  _134
REMARK   61  A    between atoms: _133  and  _136
REMARK   62  A    between atoms: _136  and  _137
REMARK   63  A    between atoms: _140  and  _142
REMARK   64  A    between atoms: _142  and  _143
REMARK   65  A    between atoms: _142  and  _145
REMARK   66  A    between atoms: _145  and  _146
REMARK   67  A    between atoms: _149  and  _151
REMARK   68  A    between atoms: _151  and  _152
REMARK   69  A    between atoms: _151  and  _154
REMARK   70  A    between atoms: _157  and  _159
REMARK   71  A    between atoms: _159  and  _160
REMARK   72  A    between atoms: _159  and  _162
REMARK   73  A    between atoms: _162  and  _163
REMARK   74  A    between atoms: _166  and  _168
REMARK   75  A    between atoms: _168  and  _169
REMARK   76  A    between atoms: _168  and  _171
REMARK   77  A    between atoms: _171  and  _172
REMARK   78  A    between atoms: _175  and  _177
REMARK   79  A    between atoms: _177  and  _178
REMARK   80  A    between atoms: _180  and  _182
REMARK   81  A    between atoms: _182  and  _183
REMARK   82  A    between atoms: _182  and  _185
REMARK   83  A    between atoms: _185  and  _186
REMARK   84  A    between atoms: _189  and  _191
REMARK   85  A    between atoms: _191  and  _192
REMARK   86  A    between atoms: _194  and  _196
REMARK   87  A    between atoms: _196  and  _197
REMARK   88  A    between atoms: _196  and  _199
REMARK   89  A    between atoms: _199  and  _200
REMARK   90  A    between atoms: _200  and  _201
REMARK   91  A    between atoms: _203  and  _205
REMARK   92  A    between atoms: _205  and  _206
REMARK   93  A    between atoms: _205  and  _208
REMARK   94  A    between atoms: _208  and  _209
REMARK   95  A    between atoms: _212  and  _214
REMARK   96  A    between atoms: _214  and  _215
REMARK   97  A    between atoms: _218  and  _220
REMARK   98  A    between atoms: _220  and  _221
REMARK   99  A    between atoms: _220  and  _223
REMARK  100  A    between atoms: _223  and  _224
REMARK  101  A    between atoms: _227  and  _229
REMARK  102  A    between atoms: _229  and  _230
REMARK  103  A    between atoms: _229  and  _232
REMARK  104  A    between atoms: _232  and  _233
REMARK  105  A    between atoms: _236  and  _238
REMARK  106  A    between atoms: _238  and  _239
REMARK  107  A    between atoms: _238  and  _241
REMARK  108  A    between atoms: _241  and  _242
REMARK  109  A    between atoms: _245  and  _247
REMARK  110  A    between atoms: _247  and  _248
REMARK  111  A    between atoms: _247  and  _250
REMARK  112  A    between atoms: _250  and  _251
REMARK  113  A    between atoms: _256  and  _258
REMARK  114  A    between atoms: _258  and  _259
REMARK  115  A    between atoms: _258  and  _261
REMARK  116  A    between atoms: _261  and  _262
REMARK  117  A    between atoms: _267  and  _269
REMARK  118  A    between atoms: _269  and  _270
REMARK  119  A    between atoms: _269  and  _272
REMARK  120  A    between atoms: _272  and  _273
REMARK  121  A    between atoms: _276  and  _278
REMARK  122  A    between atoms: _278  and  _279
REMARK  123  A    between atoms: _281  and  _283
REMARK  124  A    between atoms: _283  and  _284
REMARK  125  A    between atoms: _283  and  _286
REMARK  126  A    between atoms: _286  and  _287
REMARK  127  A    between atoms: _290  and  _292
REMARK  128  A    between atoms: _292  and  _293
REMARK  129  A    between atoms: _292  and  _295
REMARK  130  A    between atoms: _295  and  _296
REMARK  131  A    between atoms: _299  and  _301
REMARK  132  A    between atoms: _301  and  _302
REMARK  133  A    between atoms: _305  and  _307
REMARK  134  A    between atoms: _307  and  _308
REMARK  135  A    between atoms: _307  and  _310
REMARK  136  A    between atoms: _310  and  _311
REMARK  137  A    between atoms: _311  and  _312
REMARK  138  A    between atoms: _312  and  _313
REMARK  139  A    between atoms: _313  and  _314
REMARK  140  A    between atoms: _318  and  _320
REMARK  141  A    between atoms: _320  and  _321
REMARK  142  A    between atoms: _323  and  _325
REMARK  143  A    between atoms: _325  and  _326
REMARK  144  A    between atoms: _325  and  _328
REMARK  145  A    between atoms: _328  and  _329
REMARK  146  A    between atoms: _332  and  _334
REMARK  147  A    between atoms: _334  and  _335
REMARK  148  A    between atoms: _334  and  _337
REMARK  149  A    between atoms: _337  and  _338
REMARK  150  A    between atoms: _344  and  _346
REMARK  151  A    between atoms: _346  and  _347
REMARK  152  A    between atoms: _349  and  _351
REMARK  153  A    between atoms: _351  and  _352
REMARK  154  A    between atoms: _351  and  _354
REMARK  155  A    between atoms: _357  and  _359
REMARK  156  A    between atoms: _359  and  _360
REMARK  157  A    between atoms: _362  and  _364
REMARK  158  A    between atoms: _364  and  _365
REMARK  159  A    between atoms: _364  and  _367
REMARK  160  A    between atoms: _367  and  _368
REMARK  161  A    between atoms: _374  and  _376
REMARK  162  A    between atoms: _376  and  _377
REMARK  163  A    between atoms: _376  and  _379
REMARK  164  A    between atoms: _379  and  _380
REMARK  165  A    between atoms: _385  and  _386
REMARK  166  A    between atoms: _388  and  _390
REMARK  167  A    between atoms: _390  and  _391
REMARK  168  A    between atoms: _390  and  _393
REMARK  169  A    between atoms: _393  and  _394
REMARK  170  A    between atoms: _396  and  _398
REMARK  171  A    between atoms: _398  and  _399
REMARK  172  A    between atoms: _398  and  _401
REMARK  173  A    between atoms: _401  and  _402
REMARK  174  A    between atoms: _407  and  _408
REMARK  175  A    between atoms: _410  and  _412
REMARK  176  A    between atoms: _412  and  _413
REMARK  177  A    between atoms: _412  and  _415
REMARK  178  A    between atoms: _418  and  _420
REMARK  179  A    between atoms: _420  and  _421
REMARK  180  A    between atoms: _420  and  _423
REMARK  181  A    between atoms: _423  and  _424
REMARK  182  A    between atoms: _427  and  _429
REMARK  183  A    between atoms: _429  and  _430
REMARK  184  A    between atoms: _429  and  _432
REMARK  185  A    between atoms: _435  and  _437
REMARK  186  A    between atoms: _437  and  _438
REMARK  187  A    between atoms: _437  and  _440
REMARK  188  A    between atoms: _440  and  _441
REMARK  189  A    between atoms: _444  and  _446
REMARK  190  A    between atoms: _446  and  _447
REMARK  191  A    between atoms: _446  and  _449
REMARK  192  A    between atoms: _449  and  _450
REMARK  193  A    between atoms: _453  and  _455
REMARK  194  A    between atoms: _455  and  _456
REMARK  195  A    between atoms: _455  and  _458
REMARK  196  A    between atoms: _458  and  _459
REMARK  197  A    between atoms: _459  and  _460
REMARK  198  A    between atoms: _460  and  _461
REMARK  199  A    between atoms: _461  and  _462
REMARK  200  A    between atoms: _466  and  _468
REMARK  201  A    between atoms: _468  and  _469
REMARK  202  A    between atoms: _468  and  _471
REMARK  203  A    between atoms: _471  and  _472
REMARK  204  A    between atoms: _477  and  _479
REMARK  205  A    between atoms: _479  and  _480
REMARK  206  A    between atoms: _483  and  _485
REMARK  207  A    between atoms: _485  and  _486
REMARK  208  A    between atoms: _485  and  _488
REMARK  209  A    between atoms: _488  and  _489
REMARK  210  A    between atoms: _499  and  _501
REMARK  211  A    between atoms: _501  and  _502
REMARK  212  A    between atoms: _501  and  _504
REMARK  213  A    between atoms: _504  and  _505
REMARK  214  A    between atoms: _505  and  _506
REMARK  215  A    between atoms: _509  and  _511
REMARK  216  A    between atoms: _511  and  _512
REMARK  217  A    between atoms: _511  and  _514
REMARK  218  A    between atoms: _514  and  _515
REMARK  219  A    between atoms: _517  and  _519
REMARK  220  A    between atoms: _519  and  _520
REMARK  221  A    between atoms: _519  and  _522
REMARK  222  A    between atoms: _522  and  _523
REMARK  223  A    between atoms: _529  and  _531
REMARK  224  A    between atoms: _531  and  _532
REMARK  225  A    between atoms: _531  and  _534
REMARK  226  A    between atoms: _534  and  _535
REMARK  227  A    between atoms: _538  and  _540
REMARK  228  A    between atoms: _540  and  _541
REMARK  229  A    between atoms: _540  and  _543
REMARK  230  A    between atoms: _546  and  _548
REMARK  231  A    between atoms: _548  and  _549
REMARK  232  A    between atoms: _551  and  _553
REMARK  233  A    between atoms: _553  and  _554
REMARK  234  A    between atoms: _553  and  _556
REMARK  235  A    between atoms: _556  and  _557
REMARK  236  A    between atoms: _560  and  _562
REMARK  237  A    between atoms: _562  and  _563
REMARK  238  A    between atoms: _562  and  _565
REMARK  239  A    between atoms: _565  and  _566
REMARK  240  A    between atoms: _566  and  _567
REMARK  241  A    between atoms: _567  and  _568
REMARK  242  A    between atoms: _568  and  _569
REMARK  243  A    between atoms: _573  and  _575
REMARK  244  A    between atoms: _575  and  _576
REMARK  245  A    between atoms: _575  and  _578
REMARK                            x       y       z     vdW  Elec       q    Type
REMARK                         _______ _______ _______ _____ _____    ______ ____
ROOT
ATOM      1  O   HOH     1       4.532  38.828  31.094  0.00  0.00    +0.000 OA
ENDROOT
TORSDOF 0
REMARK  Name = ../refined-set-2016/2qg2/2qg2_pocket.pdb
REMARK  245 active torsions:
REMARK  status: ('A' for Active; 'I' for Inactive)
REMARK    1  A    between atoms: _1  and  _3
REMARK    2  A    between atoms: _3  and  _4
REMARK    3  A    between atoms: _3  and  _6
REMARK    4  A    between atoms: _6  and  _7
REMARK    5  A    between atoms: _13  and  _15
REMARK    6  A    between atoms: _15  and  _16
REMARK    7  A    between atoms: _15  and  _18
REMARK    8  A    between atoms: _18  and  _19
REMARK    9  A    between atoms: _22  and  _24
REMARK   10  A    between atoms: _24  and  _25
REMARK   11  A    between atoms: _24  and  _27
REMARK   12  A    between atoms: _27  and  _28
REMARK   13  A    between atoms: _31  and  _33
REMARK   14  A    between atoms: _33  and  _34
REMARK   15  A    between atoms: _33  and  _36
REMARK   16  A    between atoms: _36  and  _37
REMARK   17  A    between atoms: _37  and  _38
REMARK   18  A    between atoms: _41  and  _43
REMARK   19  A    between atoms: _43  and  _44
REMARK   20  A    between atoms: _43  and  _46
REMARK   21  A    between atoms: _46  and  _47
REMARK   22  A    between atoms: _50  and  _52
REMARK   23  A    between atoms: _52  and  _53
REMARK   24  A    between atoms: _52  and  _55
REMARK   25  A    between atoms: _55  and  _56
REMARK   26  A    between atoms: _59  and  _61
REMARK   27  A    between atoms: _61  and  _62
REMARK   28  A    between atoms: _61  and  _64
REMARK   29  A    between atoms: _64  and  _65
REMARK   30  A    between atoms: _67  and  _69
REMARK   31  A    between atoms: _69  and  _70
REMARK   32  A    between atoms: _69  and  _72
REMARK   33  A    between atoms: _72  and  _73
REMARK   34  A    between atoms: _78  and  _80
REMARK   35  A    between atoms: _80  and  _81
REMARK   36  A    between atoms: _80  and  _83
REMARK   37  A    between atoms: _83  and  _84
REMARK   38  A    between atoms: _86  and  _88
REMARK   39  A    between atoms: _88  and  _89
REMARK   40  A    between atoms: _88  and  _91
REMARK   41  A    between atoms: _91  and  _92
REMARK   42  A    between atoms: _94  and  _96
REMARK   43  A    between atoms: _96  and  _97
REMARK   44  A    between atoms: _96  and  _99
REMARK   45  A    between atoms: _99  and  _100
REMARK   46  A    between atoms: _103  and  _105
REMARK   47  A    between atoms: _105  and  _106
REMARK   48  A    between atoms: _109  and  _111
REMARK   49  A    between atoms: _111  and  _112
REMARK   50  A    between atoms: _111  and  _114
REMARK   51  A    between atoms: _114  and  _115
REMARK   52  A    between atoms: _118  and  _120
REMARK   53  A    between atoms: _120  and  _121
REMARK   54  A    between atoms: _120  and  _123
REMARK   55  A    between atoms: _123  and  _124
REMARK   56  A    between atoms: _124  and  _125
REMARK   57  A    between atoms: _125  and  _126
REMARK   58  A    between atoms: _126  and  _127
REMARK   59  A    between atoms: _131  and  _133
REMARK   60  A    between atoms: _133  and  _134
REMARK   61  A    between atoms: _133  and  _136
REMARK   62  A    between atoms: _136  and  _137
REMARK   63  A    between atoms: _140  and  _142
REMARK   64  A    between atoms: _142  and  _143
REMARK   65  A    between atoms: _142  and  _145
REMARK   66  A    between atoms: _145  and  _146
REMARK   67  A    between atoms: _149  and  _151
REMARK   68  A    between atoms: _151  and  _152
REMARK   69  A    between atoms: _151  and  _154
REMARK   70  A    between atoms: _157  and  _159
REMARK   71  A    between atoms: _159  and  _160
REMARK   72  A    between atoms: _159  and  _162
REMARK   73  A    between atoms: _162  and  _163
REMARK   74  A    between atoms: _166  and  _168
REMARK   75  A    between atoms: _168  and  _169
REMARK   76  A    between atoms: _168  and  _171
REMARK   77  A    between atoms: _171  and  _172
REMARK   78  A    between atoms: _175  and  _177
REMARK   79  A    between atoms: _177  and  _178
REMARK   80  A    between atoms: _180  and  _182
REMARK   81  A    between atoms: _182  and  _183
REMARK   82  A    between atoms: _182  and  _185
REMARK   83  A    between atoms: _185  and  _186
REMARK   84  A    between atoms: _189  and  _191
REMARK   85  A    between atoms: _191  and  _192
REMARK   86  A    between atoms: _194  and  _196
REMARK   87  A    between atoms: _196  and  _197
REMARK   88  A    between atoms: _196  and  _199
REMARK   89  A    between atoms: _199  and  _200
REMARK   90  A    between atoms: _200  and  _201
REMARK   91  A    between atoms: _203  and  _205
REMARK   92  A    between atoms: _205  and  _206
REMARK   93  A    between atoms: _205  and  _208
REMARK   94  A    between atoms: _208  and  _209
REMARK   95  A    between atoms: _212  and  _214
REMARK   96  A    between atoms: _214  and  _215
REMARK   97  A    between atoms: _218  and  _220
REMARK   98  A    between atoms: _220  and  _221
REMARK   99  A    between atoms: _220  and  _223
REMARK  100  A    between atoms: _223  and  _224
REMARK  101  A    between atoms: _227  and  _229
REMARK  102  A    between atoms: _229  and  _230
REMARK  103  A    between atoms: _229  and  _232
REMARK  104  A    between atoms: _232  and  _233
REMARK  105  A    between atoms: _236  and  _238
REMARK  106  A    between atoms: _238  and  _239
REMARK  107  A    between atoms: _238  and  _241
REMARK  108  A    between atoms: _241  and  _242
REMARK  109  A    between atoms: _245  and  _247
REMARK  110  A    between atoms: _247  and  _248
REMARK  111  A    between atoms: _247  and  _250
REMARK  112  A    between atoms: _250  and  _251
REMARK  113  A    between atoms: _256  and  _258
REMARK  114  A    between atoms: _258  and  _259
REMARK  115  A    between atoms: _258  and  _261
REMARK  116  A    between atoms: _261  and  _262
REMARK  117  A    between atoms: _267  and  _269
REMARK  118  A    between atoms: _269  and  _270
REMARK  119  A    between atoms: _269  and  _272
REMARK  120  A    between atoms: _272  and  _273
REMARK  121  A    between atoms: _276  and  _278
REMARK  122  A    between atoms: _278  and  _279
REMARK  123  A    between atoms: _281  and  _283
REMARK  124  A    between atoms: _283  and  _284
REMARK  125  A    between atoms: _283  and  _286
REMARK  126  A    between atoms: _286  and  _287
REMARK  127  A    between atoms: _290  and  _292
REMARK  128  A    between atoms: _292  and  _293
REMARK  129  A    between atoms: _292  and  _295
REMARK  130  A    between atoms: _295  and  _296
REMARK  131  A    between atoms: _299  and  _301
REMARK  132  A    between atoms: _301  and  _302
REMARK  133  A    between atoms: _305  and  _307
REMARK  134  A    between atoms: _307  and  _308
REMARK  135  A    between atoms: _307  and  _310
REMARK  136  A    between atoms: _310  and  _311
REMARK  137  A    between atoms: _311  and  _312
REMARK  138  A    between atoms: _312  and  _313
REMARK  139  A    between atoms: _313  and  _314
REMARK  140  A    between atoms: _318  and  _320
REMARK  141  A    between atoms: _320  and  _321
REMARK  142  A    between atoms: _323  and  _325
REMARK  143  A    between atoms: _325  and  _326
REMARK  144  A    between atoms: _325  and  _328
REMARK  145  A    between atoms: _328  and  _329
REMARK  146  A    between atoms: _332  and  _334
REMARK  147  A    between atoms: _334  and  _335
REMARK  148  A    between atoms: _334  and  _337
REMARK  149  A    between atoms: _337  and  _338
REMARK  150  A    between atoms: _344  and  _346
REMARK  151  A    between atoms: _346  and  _347
REMARK  152  A    between atoms: _349  and  _351
REMARK  153  A    between atoms: _351  and  _352
REMARK  154  A    between atoms: _351  and  _354
REMARK  155  A    between atoms: _357  and  _359
REMARK  156  A    between atoms: _359  and  _360
REMARK  157  A    between atoms: _362  and  _364
REMARK  158  A    between atoms: _364  and  _365
REMARK  159  A    between atoms: _364  and  _367
REMARK  160  A    between atoms: _367  and  _368
REMARK  161  A    between atoms: _374  and  _376
REMARK  162  A    between atoms: _376  and  _377
REMARK  163  A    between atoms: _376  and  _379
REMARK  164  A    between atoms: _379  and  _380
REMARK  165  A    between atoms: _385  and  _386
REMARK  166  A    between atoms: _388  and  _390
REMARK  167  A    between atoms: _390  and  _391
REMARK  168  A    between atoms: _390  and  _393
REMARK  169  A    between atoms: _393  and  _394
REMARK  170  A    between atoms: _396  and  _398
REMARK  171  A    between atoms: _398  and  _399
REMARK  172  A    between atoms: _398  and  _401
REMARK  173  A    between atoms: _401  and  _402
REMARK  174  A    between atoms: _407  and  _408
REMARK  175  A    between atoms: _410  and  _412
REMARK  176  A    between atoms: _412  and  _413
REMARK  177  A    between atoms: _412  and  _415
REMARK  178  A    between atoms: _418  and  _420
REMARK  179  A    between atoms: _420  and  _421
REMARK  180  A    between atoms: _420  and  _423
REMARK  181  A    between atoms: _423  and  _424
REMARK  182  A    between atoms: _427  and  _429
REMARK  183  A    between atoms: _429  and  _430
REMARK  184  A    between atoms: _429  and  _432
REMARK  185  A    between atoms: _435  and  _437
REMARK  186  A    between atoms: _437  and  _438
REMARK  187  A    between atoms: _437  and  _440
REMARK  188  A    between atoms: _440  and  _441
REMARK  189  A    between atoms: _444  and  _446
REMARK  190  A    between atoms: _446  and  _447
REMARK  191  A    between atoms: _446  and  _449
REMARK  192  A    between atoms: _449  and  _450
REMARK  193  A    between atoms: _453  and  _455
REMARK  194  A    between atoms: _455  and  _456
REMARK  195  A    between atoms: _455  and  _458
REMARK  196  A    between atoms: _458  and  _459
REMARK  197  A    between atoms: _459  and  _460
REMARK  198  A    between atoms: _460  and  _461
REMARK  199  A    between atoms: _461  and  _462
REMARK  200  A    between atoms: _466  and  _468
REMARK  201  A    between atoms: _468  and  _469
REMARK  202  A    between atoms: _468  and  _471
REMARK  203  A    between atoms: _471  and  _472
REMARK  204  A    between atoms: _477  and  _479
REMARK  205  A    between atoms: _479  and  _480
REMARK  206  A    between atoms: _483  and  _485
REMARK  207  A    between atoms: _485  and  _486
REMARK  208  A    between atoms: _485  and  _488
REMARK  209  A    between atoms: _488  and  _489
REMARK  210  A    between atoms: _499  and  _501
REMARK  211  A    between atoms: _501  and  _502
REMARK  212  A    between atoms: _501  and  _504
REMARK  213  A    between atoms: _504  and  _505
REMARK  214  A    between atoms: _505  and  _506
REMARK  215  A    between atoms: _509  and  _511
REMARK  216  A    between atoms: _511  and  _512
REMARK  217  A    between atoms: _511  and  _514
REMARK  218  A    between atoms: _514  and  _515
REMARK  219  A    between atoms: _517  and  _519
REMARK  220  A    between atoms: _519  and  _520
REMARK  221  A    between atoms: _519  and  _522
REMARK  222  A    between atoms: _522  and  _523
REMARK  223  A    between atoms: _529  and  _531
REMARK  224  A    between atoms: _531  and  _532
REMARK  225  A    between atoms: _531  and  _534
REMARK  226  A    between atoms: _534  and  _535
REMARK  227  A    between atoms: _538  and  _540
REMARK  228  A    between atoms: _540  and  _541
REMARK  229  A    between atoms: _540  and  _543
REMARK  230  A    between atoms: _546  and  _548
REMARK  231  A    between atoms: _548  and  _549
REMARK  232  A    between atoms: _551  and  _553
REMARK  233  A    between atoms: _553  and  _554
REMARK  234  A    between atoms: _553  and  _556
REMARK  235  A    between atoms: _556  and  _557
REMARK  236  A    between atoms: _560  and  _562
REMARK  237  A    between atoms: _562  and  _563
REMARK  238  A    between atoms: _562  and  _565
REMARK  239  A    between atoms: _565  and  _566
REMARK  240  A    between atoms: _566  and  _567
REMARK  241  A    between atoms: _567  and  _568
REMARK  242  A    between atoms: _568  and  _569
REMARK  243  A    between atoms: _573  and  _575
REMARK  244  A    between atoms: _575  and  _576
REMARK  245  A    between atoms: _575  and  _578
REMARK                            x       y       z     vdW  Elec       q    Type
REMARK                         _______ _______ _______ _____ _____    ______ ____
ROOT
ATOM      1  O   HOH     1      14.198  31.975  20.147  0.00  0.00    +0.000 OA
ENDROOT
TORSDOF 0
REMARK  Name = ../refined-set-2016/2qg2/2qg2_pocket.pdb
REMARK  245 active torsions:
REMARK  status: ('A' for Active; 'I' for Inactive)
REMARK    1  A    between atoms: _1  and  _3
REMARK    2  A    between atoms: _3  and  _4
REMARK    3  A    between atoms: _3  and  _6
REMARK    4  A    between atoms: _6  and  _7
REMARK    5  A    between atoms: _13  and  _15
REMARK    6  A    between atoms: _15  and  _16
REMARK    7  A    between atoms: _15  and  _18
REMARK    8  A    between atoms: _18  and  _19
REMARK    9  A    between atoms: _22  and  _24
REMARK   10  A    between atoms: _24  and  _25
REMARK   11  A    between atoms: _24  and  _27
REMARK   12  A    between atoms: _27  and  _28
REMARK   13  A    between atoms: _31  and  _33
REMARK   14  A    between atoms: _33  and  _34
REMARK   15  A    between atoms: _33  and  _36
REMARK   16  A    between atoms: _36  and  _37
REMARK   17  A    between atoms: _37  and  _38
REMARK   18  A    between atoms: _41  and  _43
REMARK   19  A    between atoms: _43  and  _44
REMARK   20  A    between atoms: _43  and  _46
REMARK   21  A    between atoms: _46  and  _47
REMARK   22  A    between atoms: _50  and  _52
REMARK   23  A    between atoms: _52  and  _53
REMARK   24  A    between atoms: _52  and  _55
REMARK   25  A    between atoms: _55  and  _56
REMARK   26  A    between atoms: _59  and  _61
REMARK   27  A    between atoms: _61  and  _62
REMARK   28  A    between atoms: _61  and  _64
REMARK   29  A    between atoms: _64  and  _65
REMARK   30  A    between atoms: _67  and  _69
REMARK   31  A    between atoms: _69  and  _70
REMARK   32  A    between atoms: _69  and  _72
REMARK   33  A    between atoms: _72  and  _73
REMARK   34  A    between atoms: _78  and  _80
REMARK   35  A    between atoms: _80  and  _81
REMARK   36  A    between atoms: _80  and  _83
REMARK   37  A    between atoms: _83  and  _84
REMARK   38  A    between atoms: _86  and  _88
REMARK   39  A    between atoms: _88  and  _89
REMARK   40  A    between atoms: _88  and  _91
REMARK   41  A    between atoms: _91  and  _92
REMARK   42  A    between atoms: _94  and  _96
REMARK   43  A    between atoms: _96  and  _97
REMARK   44  A    between atoms: _96  and  _99
REMARK   45  A    between atoms: _99  and  _100
REMARK   46  A    between atoms: _103  and  _105
REMARK   47  A    between atoms: _105  and  _106
REMARK   48  A    between atoms: _109  and  _111
REMARK   49  A    between atoms: _111  and  _112
REMARK   50  A    between atoms: _111  and  _114
REMARK   51  A    between atoms: _114  and  _115
REMARK   52  A    between atoms: _118  and  _120
REMARK   53  A    between atoms: _120  and  _121
REMARK   54  A    between atoms: _120  and  _123
REMARK   55  A    between atoms: _123  and  _124
REMARK   56  A    between atoms: _124  and  _125
REMARK   57  A    between atoms: _125  and  _126
REMARK   58  A    between atoms: _126  and  _127
REMARK   59  A    between atoms: _131  and  _133
REMARK   60  A    between atoms: _133  and  _134
REMARK   61  A    between atoms: _133  and  _136
REMARK   62  A    between atoms: _136  and  _137
REMARK   63  A    between atoms: _140  and  _142
REMARK   64  A    between atoms: _142  and  _143
REMARK   65  A    between atoms: _142  and  _145
REMARK   66  A    between atoms: _145  and  _146
REMARK   67  A    between atoms: _149  and  _151
REMARK   68  A    between atoms: _151  and  _152
REMARK   69  A    between atoms: _151  and  _154
REMARK   70  A    between atoms: _157  and  _159
REMARK   71  A    between atoms: _159  and  _160
REMARK   72  A    between atoms: _159  and  _162
REMARK   73  A    between atoms: _162  and  _163
REMARK   74  A    between atoms: _166  and  _168
REMARK   75  A    between atoms: _168  and  _169
REMARK   76  A    between atoms: _168  and  _171
REMARK   77  A    between atoms: _171  and  _172
REMARK   78  A    between atoms: _175  and  _177
REMARK   79  A    between atoms: _177  and  _178
REMARK   80  A    between atoms: _180  and  _182
REMARK   81  A    between atoms: _182  and  _183
REMARK   82  A    between atoms: _182  and  _185
REMARK   83  A    between atoms: _185  and  _186
REMARK   84  A    between atoms: _189  and  _191
REMARK   85  A    between atoms: _191  and  _192
REMARK   86  A    between atoms: _194  and  _196
REMARK   87  A    between atoms: _196  and  _197
REMARK   88  A    between atoms: _196  and  _199
REMARK   89  A    between atoms: _199  and  _200
REMARK   90  A    between atoms: _200  and  _201
REMARK   91  A    between atoms: _203  and  _205
REMARK   92  A    between atoms: _205  and  _206
REMARK   93  A    between atoms: _205  and  _208
REMARK   94  A    between atoms: _208  and  _209
REMARK   95  A    between atoms: _212  and  _214
REMARK   96  A    between atoms: _214  and  _215
REMARK   97  A    between atoms: _218  and  _220
REMARK   98  A    between atoms: _220  and  _221
REMARK   99  A    between atoms: _220  and  _223
REMARK  100  A    between atoms: _223  and  _224
REMARK  101  A    between atoms: _227  and  _229
REMARK  102  A    between atoms: _229  and  _230
REMARK  103  A    between atoms: _229  and  _232
REMARK  104  A    between atoms: _232  and  _233
REMARK  105  A    between atoms: _236  and  _238
REMARK  106  A    between atoms: _238  and  _239
REMARK  107  A    between atoms: _238  and  _241
REMARK  108  A    between atoms: _241  and  _242
REMARK  109  A    between atoms: _245  and  _247
REMARK  110  A    between atoms: _247  and  _248
REMARK  111  A    between atoms: _247  and  _250
REMARK  112  A    between atoms: _250  and  _251
REMARK  113  A    between atoms: _256  and  _258
REMARK  114  A    between atoms: _258  and  _259
REMARK  115  A    between atoms: _258  and  _261
REMARK  116  A    between atoms: _261  and  _262
REMARK  117  A    between atoms: _267  and  _269
REMARK  118  A    between atoms: _269  and  _270
REMARK  119  A    between atoms: _269  and  _272
REMARK  120  A    between atoms: _272  and  _273
REMARK  121  A    between atoms: _276  and  _278
REMARK  122  A    between atoms: _278  and  _279
REMARK  123  A    between atoms: _281  and  _283
REMARK  124  A    between atoms: _283  and  _284
REMARK  125  A    between atoms: _283  and  _286
REMARK  126  A    between atoms: _286  and  _287
REMARK  127  A    between atoms: _290  and  _292
REMARK  128  A    between atoms: _292  and  _293
REMARK  129  A    between atoms: _292  and  _295
REMARK  130  A    between atoms: _295  and  _296
REMARK  131  A    between atoms: _299  and  _301
REMARK  132  A    between atoms: _301  and  _302
REMARK  133  A    between atoms: _305  and  _307
REMARK  134  A    between atoms: _307  and  _308
REMARK  135  A    between atoms: _307  and  _310
REMARK  136  A    between atoms: _310  and  _311
REMARK  137  A    between atoms: _311  and  _312
REMARK  138  A    between atoms: _312  and  _313
REMARK  139  A    between atoms: _313  and  _314
REMARK  140  A    between atoms: _318  and  _320
REMARK  141  A    between atoms: _320  and  _321
REMARK  142  A    between atoms: _323  and  _325
REMARK  143  A    between atoms: _325  and  _326
REMARK  144  A    between atoms: _325  and  _328
REMARK  145  A    between atoms: _328  and  _329
REMARK  146  A    between atoms: _332  and  _334
REMARK  147  A    between atoms: _334  and  _335
REMARK  148  A    between atoms: _334  and  _337
REMARK  149  A    between atoms: _337  and  _338
REMARK  150  A    between atoms: _344  and  _346
REMARK  151  A    between atoms: _346  and  _347
REMARK  152  A    between atoms: _349  and  _351
REMARK  153  A    between atoms: _351  and  _352
REMARK  154  A    between atoms: _351  and  _354
REMARK  155  A    between atoms: _357  and  _359
REMARK  156  A    between atoms: _359  and  _360
REMARK  157  A    between atoms: _362  and  _364
REMARK  158  A    between atoms: _364  and  _365
REMARK  159  A    between atoms: _364  and  _367
REMARK  160  A    between atoms: _367  and  _368
REMARK  161  A    between atoms: _374  and  _376
REMARK  162  A    between atoms: _376  and  _377
REMARK  163  A    between atoms: _376  and  _379
REMARK  164  A    between atoms: _379  and  _380
REMARK  165  A    between atoms: _385  and  _386
REMARK  166  A    between atoms: _388  and  _390
REMARK  167  A    between atoms: _390  and  _391
REMARK  168  A    between atoms: _390  and  _393
REMARK  169  A    between atoms: _393  and  _394
REMARK  170  A    between atoms: _396  and  _398
REMARK  171  A    between atoms: _398  and  _399
REMARK  172  A    between atoms: _398  and  _401
REMARK  173  A    between atoms: _401  and  _402
REMARK  174  A    between atoms: _407  and  _408
REMARK  175  A    between atoms: _410  and  _412
REMARK  176  A    between atoms: _412  and  _413
REMARK  177  A    between atoms: _412  and  _415
REMARK  178  A    between atoms: _418  and  _420
REMARK  179  A    between atoms: _420  and  _421
REMARK  180  A    between atoms: _420  and  _423
REMARK  181  A    between atoms: _423  and  _424
REMARK  182  A    between atoms: _427  and  _429
REMARK  183  A    between atoms: _429  and  _430
REMARK  184  A    between atoms: _429  and  _432
REMARK  185  A    between atoms: _435  and  _437
REMARK  186  A    between atoms: _437  and  _438
REMARK  187  A    between atoms: _437  and  _440
REMARK  188  A    between atoms: _440  and  _441
REMARK  189  A    between atoms: _444  and  _446
REMARK  190  A    between atoms: _446  and  _447
REMARK  191  A    between atoms: _446  and  _449
REMARK  192  A    between atoms: _449  and  _450
REMARK  193  A    between atoms: _453  and  _455
REMARK  194  A    between atoms: _455  and  _456
REMARK  195  A    between atoms: _455  and  _458
REMARK  196  A    between atoms: _458  and  _459
REMARK  197  A    between atoms: _459  and  _460
REMARK  198  A    between atoms: _460  and  _461
REMARK  199  A    between atoms: _461  and  _462
REMARK  200  A    between atoms: _466  and  _468
REMARK  201  A    between atoms: _468  and  _469
REMARK  202  A    between atoms: _468  and  _471
REMARK  203  A    between atoms: _471  and  _472
REMARK  204  A    between atoms: _477  and  _479
REMARK  205  A    between atoms: _479  and  _480
REMARK  206  A    between atoms: _483  and  _485
REMARK  207  A    between atoms: _485  and  _486
REMARK  208  A    between atoms: _485  and  _488
REMARK  209  A    between atoms: _488  and  _489
REMARK  210  A    between atoms: _499  and  _501
REMARK  211  A    between atoms: _501  and  _502
REMARK  212  A    between atoms: _501  and  _504
REMARK  213  A    between atoms: _504  and  _505
REMARK  214  A    between atoms: _505  and  _506
REMARK  215  A    between atoms: _509  and  _511
REMARK  216  A    between atoms: _511  and  _512
REMARK  217  A    between atoms: _511  and  _514
REMARK  218  A    between atoms: _514  and  _515
REMARK  219  A    between atoms: _517  and  _519
REMARK  220  A    between atoms: _519  and  _520
REMARK  221  A    between atoms: _519  and  _522
REMARK  222  A    between atoms: _522  and  _523
REMARK  223  A    between atoms: _529  and  _531
REMARK  224  A    between atoms: _531  and  _532
REMARK  225  A    between atoms: _531  and  _534
REMARK  226  A    between atoms: _534  and  _535
REMARK  227  A    between atoms: _538  and  _540
REMARK  228  A    between atoms: _540  and  _541
REMARK  229  A    between atoms: _540  and  _543
REMARK  230  A    between atoms: _546  and  _548
REMARK  231  A    between atoms: _548  and  _549
REMARK  232  A    between atoms: _551  and  _553
REMARK  233  A    between atoms: _553  and  _554
REMARK  234  A    between atoms: _553  and  _556
REMARK  235  A    between atoms: _556  and  _557
REMARK  236  A    between atoms: _560  and  _562
REMARK  237  A    between atoms: _562  and  _563
REMARK  238  A    between atoms: _562  and  _565
REMARK  239  A    between atoms: _565  and  _566
REMARK  240  A    between atoms: _566  and  _567
REMARK  241  A    between atoms: _567  and  _568
REMARK  242  A    between atoms: _568  and  _569
REMARK  243  A    between atoms: _573  and  _575
REMARK  244  A    between atoms: _575  and  _576
REMARK  245  A    between atoms: _575  and  _578
REMARK                            x       y       z     vdW  Elec       q    Type
REMARK                         _______ _______ _______ _____ _____    ______ ____
ROOT
ATOM      1  O   HOH     1       1.468  40.920  26.388  0.00  0.00    +0.000 OA
ENDROOT
TORSDOF 0
REMARK  Name = ../refined-set-2016/2qg2/2qg2_pocket.pdb
REMARK  245 active torsions:
REMARK  status: ('A' for Active; 'I' for Inactive)
REMARK    1  A    between atoms: _1  and  _3
REMARK    2  A    between atoms: _3  and  _4
REMARK    3  A    between atoms: _3  and  _6
REMARK    4  A    between atoms: _6  and  _7
REMARK    5  A    between atoms: _13  and  _15
REMARK    6  A    between atoms: _15  and  _16
REMARK    7  A    between atoms: _15  and  _18
REMARK    8  A    between atoms: _18  and  _19
REMARK    9  A    between atoms: _22  and  _24
REMARK   10  A    between atoms: _24  and  _25
REMARK   11  A    between atoms: _24  and  _27
REMARK   12  A    between atoms: _27  and  _28
REMARK   13  A    between atoms: _31  and  _33
REMARK   14  A    between atoms: _33  and  _34
REMARK   15  A    between atoms: _33  and  _36
REMARK   16  A    between atoms: _36  and  _37
REMARK   17  A    between atoms: _37  and  _38
REMARK   18  A    between atoms: _41  and  _43
REMARK   19  A    between atoms: _43  and  _44
REMARK   20  A    between atoms: _43  and  _46
REMARK   21  A    between atoms: _46  and  _47
REMARK   22  A    between atoms: _50  and  _52
REMARK   23  A    between atoms: _52  and  _53
REMARK   24  A    between atoms: _52  and  _55
REMARK   25  A    between atoms: _55  and  _56
REMARK   26  A    between atoms: _59  and  _61
REMARK   27  A    between atoms: _61  and  _62
REMARK   28  A    between atoms: _61  and  _64
REMARK   29  A    between atoms: _64  and  _65
REMARK   30  A    between atoms: _67  and  _69
REMARK   31  A    between atoms: _69  and  _70
REMARK   32  A    between atoms: _69  and  _72
REMARK   33  A    between atoms: _72  and  _73
REMARK   34  A    between atoms: _78  and  _80
REMARK   35  A    between atoms: _80  and  _81
REMARK   36  A    between atoms: _80  and  _83
REMARK   37  A    between atoms: _83  and  _84
REMARK   38  A    between atoms: _86  and  _88
REMARK   39  A    between atoms: _88  and  _89
REMARK   40  A    between atoms: _88  and  _91
REMARK   41  A    between atoms: _91  and  _92
REMARK   42  A    between atoms: _94  and  _96
REMARK   43  A    between atoms: _96  and  _97
REMARK   44  A    between atoms: _96  and  _99
REMARK   45  A    between atoms: _99  and  _100
REMARK   46  A    between atoms: _103  and  _105
REMARK   47  A    between atoms: _105  and  _106
REMARK   48  A    between atoms: _109  and  _111
REMARK   49  A    between atoms: _111  and  _112
REMARK   50  A    between atoms: _111  and  _114
REMARK   51  A    between atoms: _114  and  _115
REMARK   52  A    between atoms: _118  and  _120
REMARK   53  A    between atoms: _120  and  _121
REMARK   54  A    between atoms: _120  and  _123
REMARK   55  A    between atoms: _123  and  _124
REMARK   56  A    between atoms: _124  and  _125
REMARK   57  A    between atoms: _125  and  _126
REMARK   58  A    between atoms: _126  and  _127
REMARK   59  A    between atoms: _131  and  _133
REMARK   60  A    between atoms: _133  and  _134
REMARK   61  A    between atoms: _133  and  _136
REMARK   62  A    between atoms: _136  and  _137
REMARK   63  A    between atoms: _140  and  _142
REMARK   64  A    between atoms: _142  and  _143
REMARK   65  A    between atoms: _142  and  _145
REMARK   66  A    between atoms: _145  and  _146
REMARK   67  A    between atoms: _149  and  _151
REMARK   68  A    between atoms: _151  and  _152
REMARK   69  A    between atoms: _151  and  _154
REMARK   70  A    between atoms: _157  and  _159
REMARK   71  A    between atoms: _159  and  _160
REMARK   72  A    between atoms: _159  and  _162
REMARK   73  A    between atoms: _162  and  _163
REMARK   74  A    between atoms: _166  and  _168
REMARK   75  A    between atoms: _168  and  _169
REMARK   76  A    between atoms: _168  and  _171
REMARK   77  A    between atoms: _171  and  _172
REMARK   78  A    between atoms: _175  and  _177
REMARK   79  A    between atoms: _177  and  _178
REMARK   80  A    between atoms: _180  and  _182
REMARK   81  A    between atoms: _182  and  _183
REMARK   82  A    between atoms: _182  and  _185
REMARK   83  A    between atoms: _185  and  _186
REMARK   84  A    between atoms: _189  and  _191
REMARK   85  A    between atoms: _191  and  _192
REMARK   86  A    between atoms: _194  and  _196
REMARK   87  A    between atoms: _196  and  _197
REMARK   88  A    between atoms: _196  and  _199
REMARK   89  A    between atoms: _199  and  _200
REMARK   90  A    between atoms: _200  and  _201
REMARK   91  A    between atoms: _203  and  _205
REMARK   92  A    between atoms: _205  and  _206
REMARK   93  A    between atoms: _205  and  _208
REMARK   94  A    between atoms: _208  and  _209
REMARK   95  A    between atoms: _212  and  _214
REMARK   96  A    between atoms: _214  and  _215
REMARK   97  A    between atoms: _218  and  _220
REMARK   98  A    between atoms: _220  and  _221
REMARK   99  A    between atoms: _220  and  _223
REMARK  100  A    between atoms: _223  and  _224
REMARK  101  A    between atoms: _227  and  _229
REMARK  102  A    between atoms: _229  and  _230
REMARK  103  A    between atoms: _229  and  _232
REMARK  104  A    between atoms: _232  and  _233
REMARK  105  A    between atoms: _236  and  _238
REMARK  106  A    between atoms: _238  and  _239
REMARK  107  A    between atoms: _238  and  _241
REMARK  108  A    between atoms: _241  and  _242
REMARK  109  A    between atoms: _245  and  _247
REMARK  110  A    between atoms: _247  and  _248
REMARK  111  A    between atoms: _247  and  _250
REMARK  112  A    between atoms: _250  and  _251
REMARK  113  A    between atoms: _256  and  _258
REMARK  114  A    between atoms: _258  and  _259
REMARK  115  A    between atoms: _258  and  _261
REMARK  116  A    between atoms: _261  and  _262
REMARK  117  A    between atoms: _267  and  _269
REMARK  118  A    between atoms: _269  and  _270
REMARK  119  A    between atoms: _269  and  _272
REMARK  120  A    between atoms: _272  and  _273
REMARK  121  A    between atoms: _276  and  _278
REMARK  122  A    between atoms: _278  and  _279
REMARK  123  A    between atoms: _281  and  _283
REMARK  124  A    between atoms: _283  and  _284
REMARK  125  A    between atoms: _283  and  _286
REMARK  126  A    between atoms: _286  and  _287
REMARK  127  A    between atoms: _290  and  _292
REMARK  128  A    between atoms: _292  and  _293
REMARK  129  A    between atoms: _292  and  _295
REMARK  130  A    between atoms: _295  and  _296
REMARK  131  A    between atoms: _299  and  _301
REMARK  132  A    between atoms: _301  and  _302
REMARK  133  A    between atoms: _305  and  _307
REMARK  134  A    between atoms: _307  and  _308
REMARK  135  A    between atoms: _307  and  _310
REMARK  136  A    between atoms: _310  and  _311
REMARK  137  A    between atoms: _311  and  _312
REMARK  138  A    between atoms: _312  and  _313
REMARK  139  A    between atoms: _313  and  _314
REMARK  140  A    between atoms: _318  and  _320
REMARK  141  A    between atoms: _320  and  _321
REMARK  142  A    between atoms: _323  and  _325
REMARK  143  A    between atoms: _325  and  _326
REMARK  144  A    between atoms: _325  and  _328
REMARK  145  A    between atoms: _328  and  _329
REMARK  146  A    between atoms: _332  and  _334
REMARK  147  A    between atoms: _334  and  _335
REMARK  148  A    between atoms: _334  and  _337
REMARK  149  A    between atoms: _337  and  _338
REMARK  150  A    between atoms: _344  and  _346
REMARK  151  A    between atoms: _346  and  _347
REMARK  152  A    between atoms: _349  and  _351
REMARK  153  A    between atoms: _351  and  _352
REMARK  154  A    between atoms: _351  and  _354
REMARK  155  A    between atoms: _357  and  _359
REMARK  156  A    between atoms: _359  and  _360
REMARK  157  A    between atoms: _362  and  _364
REMARK  158  A    between atoms: _364  and  _365
REMARK  159  A    between atoms: _364  and  _367
REMARK  160  A    between atoms: _367  and  _368
REMARK  161  A    between atoms: _374  and  _376
REMARK  162  A    between atoms: _376  and  _377
REMARK  163  A    between atoms: _376  and  _379
REMARK  164  A    between atoms: _379  and  _380
REMARK  165  A    between atoms: _385  and  _386
REMARK  166  A    between atoms: _388  and  _390
REMARK  167  A    between atoms: _390  and  _391
REMARK  168  A    between atoms: _390  and  _393
REMARK  169  A    between atoms: _393  and  _394
REMARK  170  A    between atoms: _396  and  _398
REMARK  171  A    between atoms: _398  and  _399
REMARK  172  A    between atoms: _398  and  _401
REMARK  173  A    between atoms: _401  and  _402
REMARK  174  A    between atoms: _407  and  _408
REMARK  175  A    between atoms: _410  and  _412
REMARK  176  A    between atoms: _412  and  _413
REMARK  177  A    between atoms: _412  and  _415
REMARK  178  A    between atoms: _418  and  _420
REMARK  179  A    between atoms: _420  and  _421
REMARK  180  A    between atoms: _420  and  _423
REMARK  181  A    between atoms: _423  and  _424
REMARK  182  A    between atoms: _427  and  _429
REMARK  183  A    between atoms: _429  and  _430
REMARK  184  A    between atoms: _429  and  _432
REMARK  185  A    between atoms: _435  and  _437
REMARK  186  A    between atoms: _437  and  _438
REMARK  187  A    between atoms: _437  and  _440
REMARK  188  A    between atoms: _440  and  _441
REMARK  189  A    between atoms: _444  and  _446
REMARK  190  A    between atoms: _446  and  _447
REMARK  191  A    between atoms: _446  and  _449
REMARK  192  A    between atoms: _449  and  _450
REMARK  193  A    between atoms: _453  and  _455
REMARK  194  A    between atoms: _455  and  _456
REMARK  195  A    between atoms: _455  and  _458
REMARK  196  A    between atoms: _458  and  _459
REMARK  197  A    between atoms: _459  and  _460
REMARK  198  A    between atoms: _460  and  _461
REMARK  199  A    between atoms: _461  and  _462
REMARK  200  A    between atoms: _466  and  _468
REMARK  201  A    between atoms: _468  and  _469
REMARK  202  A    between atoms: _468  and  _471
REMARK  203  A    between atoms: _471  and  _472
REMARK  204  A    between atoms: _477  and  _479
REMARK  205  A    between atoms: _479  and  _480
REMARK  206  A    between atoms: _483  and  _485
REMARK  207  A    between atoms: _485  and  _486
REMARK  208  A    between atoms: _485  and  _488
REMARK  209  A    between atoms: _488  and  _489
REMARK  210  A    between atoms: _499  and  _501
REMARK  211  A    between atoms: _501  and  _502
REMARK  212  A    between atoms: _501  and  _504
REMARK  213  A    between atoms: _504  and  _505
REMARK  214  A    between atoms: _505  and  _506
REMARK  215  A    between atoms: _509  and  _511
REMARK  216  A    between atoms: _511  and  _512
REMARK  217  A    between atoms: _511  and  _514
REMARK  218  A    between atoms: _514  and  _515
REMARK  219  A    between atoms: _517  and  _519
REMARK  220  A    between atoms: _519  and  _520
REMARK  221  A    between atoms: _519  and  _522
REMARK  222  A    between atoms: _522  and  _523
REMARK  223  A    between atoms: _529  and  _531
REMARK  224  A    between atoms: _531  and  _532
REMARK  225  A    between atoms: _531  and  _534
REMARK  226  A    between atoms: _534  and  _535
REMARK  227  A    between atoms: _538  and  _540
REMARK  228  A    between atoms: _540  and  _541
REMARK  229  A    between atoms: _540  and  _543
REMARK  230  A    between atoms: _546  and  _548
REMARK  231  A    between atoms: _548  and  _549
REMARK  232  A    between atoms: _551  and  _553
REMARK  233  A    between atoms: _553  and  _554
REMARK  234  A    between atoms: _553  and  _556
REMARK  235  A    between atoms: _556  and  _557
REMARK  236  A    between atoms: _560  and  _562
REMARK  237  A    between atoms: _562  and  _563
REMARK  238  A    between atoms: _562  and  _565
REMARK  239  A    between atoms: _565  and  _566
REMARK  240  A    between atoms: _566  and  _567
REMARK  241  A    between atoms: _567  and  _568
REMARK  242  A    between atoms: _568  and  _569
REMARK  243  A    between atoms: _573  and  _575
REMARK  244  A    between atoms: _575  and  _576
REMARK  245  A    between atoms: _575  and  _578
REMARK                            x       y       z     vdW  Elec       q    Type
REMARK                         _______ _______ _______ _____ _____    ______ ____
ROOT
ATOM      1  O   HOH     1       3.094  41.726  21.082  0.00  0.00    +0.000 OA
ENDROOT
TORSDOF 0
REMARK  Name = ../refined-set-2016/2qg2/2qg2_pocket.pdb
REMARK  245 active torsions:
REMARK  status: ('A' for Active; 'I' for Inactive)
REMARK    1  A    between atoms: _1  and  _3
REMARK    2  A    between atoms: _3  and  _4
REMARK    3  A    between atoms: _3  and  _6
REMARK    4  A    between atoms: _6  and  _7
REMARK    5  A    between atoms: _13  and  _15
REMARK    6  A    between atoms: _15  and  _16
REMARK    7  A    between atoms: _15  and  _18
REMARK    8  A    between atoms: _18  and  _19
REMARK    9  A    between atoms: _22  and  _24
REMARK   10  A    between atoms: _24  and  _25
REMARK   11  A    between atoms: _24  and  _27
REMARK   12  A    between atoms: _27  and  _28
REMARK   13  A    between atoms: _31  and  _33
REMARK   14  A    between atoms: _33  and  _34
REMARK   15  A    between atoms: _33  and  _36
REMARK   16  A    between atoms: _36  and  _37
REMARK   17  A    between atoms: _37  and  _38
REMARK   18  A    between atoms: _41  and  _43
REMARK   19  A    between atoms: _43  and  _44
REMARK   20  A    between atoms: _43  and  _46
REMARK   21  A    between atoms: _46  and  _47
REMARK   22  A    between atoms: _50  and  _52
REMARK   23  A    between atoms: _52  and  _53
REMARK   24  A    between atoms: _52  and  _55
REMARK   25  A    between atoms: _55  and  _56
REMARK   26  A    between atoms: _59  and  _61
REMARK   27  A    between atoms: _61  and  _62
REMARK   28  A    between atoms: _61  and  _64
REMARK   29  A    between atoms: _64  and  _65
REMARK   30  A    between atoms: _67  and  _69
REMARK   31  A    between atoms: _69  and  _70
REMARK   32  A    between atoms: _69  and  _72
REMARK   33  A    between atoms: _72  and  _73
REMARK   34  A    between atoms: _78  and  _80
REMARK   35  A    between atoms: _80  and  _81
REMARK   36  A    between atoms: _80  and  _83
REMARK   37  A    between atoms: _83  and  _84
REMARK   38  A    between atoms: _86  and  _88
REMARK   39  A    between atoms: _88  and  _89
REMARK   40  A    between atoms: _88  and  _91
REMARK   41  A    between atoms: _91  and  _92
REMARK   42  A    between atoms: _94  and  _96
REMARK   43  A    between atoms: _96  and  _97
REMARK   44  A    between atoms: _96  and  _99
REMARK   45  A    between atoms: _99  and  _100
REMARK   46  A    between atoms: _103  and  _105
REMARK   47  A    between atoms: _105  and  _106
REMARK   48  A    between atoms: _109  and  _111
REMARK   49  A    between atoms: _111  and  _112
REMARK   50  A    between atoms: _111  and  _114
REMARK   51  A    between atoms: _114  and  _115
REMARK   52  A    between atoms: _118  and  _120
REMARK   53  A    between atoms: _120  and  _121
REMARK   54  A    between atoms: _120  and  _123
REMARK   55  A    between atoms: _123  and  _124
REMARK   56  A    between atoms: _124  and  _125
REMARK   57  A    between atoms: _125  and  _126
REMARK   58  A    between atoms: _126  and  _127
REMARK   59  A    between atoms: _131  and  _133
REMARK   60  A    between atoms: _133  and  _134
REMARK   61  A    between atoms: _133  and  _136
REMARK   62  A    between atoms: _136  and  _137
REMARK   63  A    between atoms: _140  and  _142
REMARK   64  A    between atoms: _142  and  _143
REMARK   65  A    between atoms: _142  and  _145
REMARK   66  A    between atoms: _145  and  _146
REMARK   67  A    between atoms: _149  and  _151
REMARK   68  A    between atoms: _151  and  _152
REMARK   69  A    between atoms: _151  and  _154
REMARK   70  A    between atoms: _157  and  _159
REMARK   71  A    between atoms: _159  and  _160
REMARK   72  A    between atoms: _159  and  _162
REMARK   73  A    between atoms: _162  and  _163
REMARK   74  A    between atoms: _166  and  _168
REMARK   75  A    between atoms: _168  and  _169
REMARK   76  A    between atoms: _168  and  _171
REMARK   77  A    between atoms: _171  and  _172
REMARK   78  A    between atoms: _175  and  _177
REMARK   79  A    between atoms: _177  and  _178
REMARK   80  A    between atoms: _180  and  _182
REMARK   81  A    between atoms: _182  and  _183
REMARK   82  A    between atoms: _182  and  _185
REMARK   83  A    between atoms: _185  and  _186
REMARK   84  A    between atoms: _189  and  _191
REMARK   85  A    between atoms: _191  and  _192
REMARK   86  A    between atoms: _194  and  _196
REMARK   87  A    between atoms: _196  and  _197
REMARK   88  A    between atoms: _196  and  _199
REMARK   89  A    between atoms: _199  and  _200
REMARK   90  A    between atoms: _200  and  _201
REMARK   91  A    between atoms: _203  and  _205
REMARK   92  A    between atoms: _205  and  _206
REMARK   93  A    between atoms: _205  and  _208
REMARK   94  A    between atoms: _208  and  _209
REMARK   95  A    between atoms: _212  and  _214
REMARK   96  A    between atoms: _214  and  _215
REMARK   97  A    between atoms: _218  and  _220
REMARK   98  A    between atoms: _220  and  _221
REMARK   99  A    between atoms: _220  and  _223
REMARK  100  A    between atoms: _223  and  _224
REMARK  101  A    between atoms: _227  and  _229
REMARK  102  A    between atoms: _229  and  _230
REMARK  103  A    between atoms: _229  and  _232
REMARK  104  A    between atoms: _232  and  _233
REMARK  105  A    between atoms: _236  and  _238
REMARK  106  A    between atoms: _238  and  _239
REMARK  107  A    between atoms: _238  and  _241
REMARK  108  A    between atoms: _241  and  _242
REMARK  109  A    between atoms: _245  and  _247
REMARK  110  A    between atoms: _247  and  _248
REMARK  111  A    between atoms: _247  and  _250
REMARK  112  A    between atoms: _250  and  _251
REMARK  113  A    between atoms: _256  and  _258
REMARK  114  A    between atoms: _258  and  _259
REMARK  115  A    between atoms: _258  and  _261
REMARK  116  A    between atoms: _261  and  _262
REMARK  117  A    between atoms: _267  and  _269
REMARK  118  A    between atoms: _269  and  _270
REMARK  119  A    between atoms: _269  and  _272
REMARK  120  A    between atoms: _272  and  _273
REMARK  121  A    between atoms: _276  and  _278
REMARK  122  A    between atoms: _278  and  _279
REMARK  123  A    between atoms: _281  and  _283
REMARK  124  A    between atoms: _283  and  _284
REMARK  125  A    between atoms: _283  and  _286
REMARK  126  A    between atoms: _286  and  _287
REMARK  127  A    between atoms: _290  and  _292
REMARK  128  A    between atoms: _292  and  _293
REMARK  129  A    between atoms: _292  and  _295
REMARK  130  A    between atoms: _295  and  _296
REMARK  131  A    between atoms: _299  and  _301
REMARK  132  A    between atoms: _301  and  _302
REMARK  133  A    between atoms: _305  and  _307
REMARK  134  A    between atoms: _307  and  _308
REMARK  135  A    between atoms: _307  and  _310
REMARK  136  A    between atoms: _310  and  _311
REMARK  137  A    between atoms: _311  and  _312
REMARK  138  A    between atoms: _312  and  _313
REMARK  139  A    between atoms: _313  and  _314
REMARK  140  A    between atoms: _318  and  _320
REMARK  141  A    between atoms: _320  and  _321
REMARK  142  A    between atoms: _323  and  _325
REMARK  143  A    between atoms: _325  and  _326
REMARK  144  A    between atoms: _325  and  _328
REMARK  145  A    between atoms: _328  and  _329
REMARK  146  A    between atoms: _332  and  _334
REMARK  147  A    between atoms: _334  and  _335
REMARK  148  A    between atoms: _334  and  _337
REMARK  149  A    between atoms: _337  and  _338
REMARK  150  A    between atoms: _344  and  _346
REMARK  151  A    between atoms: _346  and  _347
REMARK  152  A    between atoms: _349  and  _351
REMARK  153  A    between atoms: _351  and  _352
REMARK  154  A    between atoms: _351  and  _354
REMARK  155  A    between atoms: _357  and  _359
REMARK  156  A    between atoms: _359  and  _360
REMARK  157  A    between atoms: _362  and  _364
REMARK  158  A    between atoms: _364  and  _365
REMARK  159  A    between atoms: _364  and  _367
REMARK  160  A    between atoms: _367  and  _368
REMARK  161  A    between atoms: _374  and  _376
REMARK  162  A    between atoms: _376  and  _377
REMARK  163  A    between atoms: _376  and  _379
REMARK  164  A    between atoms: _379  and  _380
REMARK  165  A    between atoms: _385  and  _386
REMARK  166  A    between atoms: _388  and  _390
REMARK  167  A    between atoms: _390  and  _391
REMARK  168  A    between atoms: _390  and  _393
REMARK  169  A    between atoms: _393  and  _394
REMARK  170  A    between atoms: _396  and  _398
REMARK  171  A    between atoms: _398  and  _399
REMARK  172  A    between atoms: _398  and  _401
REMARK  173  A    between atoms: _401  and  _402
REMARK  174  A    between atoms: _407  and  _408
REMARK  175  A    between atoms: _410  and  _412
REMARK  176  A    between atoms: _412  and  _413
REMARK  177  A    between atoms: _412  and  _415
REMARK  178  A    between atoms: _418  and  _420
REMARK  179  A    between atoms: _420  and  _421
REMARK  180  A    between atoms: _420  and  _423
REMARK  181  A    between atoms: _423  and  _424
REMARK  182  A    between atoms: _427  and  _429
REMARK  183  A    between atoms: _429  and  _430
REMARK  184  A    between atoms: _429  and  _432
REMARK  185  A    between atoms: _435  and  _437
REMARK  186  A    between atoms: _437  and  _438
REMARK  187  A    between atoms: _437  and  _440
REMARK  188  A    between atoms: _440  and  _441
REMARK  189  A    between atoms: _444  and  _446
REMARK  190  A    between atoms: _446  and  _447
REMARK  191  A    between atoms: _446  and  _449
REMARK  192  A    between atoms: _449  and  _450
REMARK  193  A    between atoms: _453  and  _455
REMARK  194  A    between atoms: _455  and  _456
REMARK  195  A    between atoms: _455  and  _458
REMARK  196  A    between atoms: _458  and  _459
REMARK  197  A    between atoms: _459  and  _460
REMARK  198  A    between atoms: _460  and  _461
REMARK  199  A    between atoms: _461  and  _462
REMARK  200  A    between atoms: _466  and  _468
REMARK  201  A    between atoms: _468  and  _469
REMARK  202  A    between atoms: _468  and  _471
REMARK  203  A    between atoms: _471  and  _472
REMARK  204  A    between atoms: _477  and  _479
REMARK  205  A    between atoms: _479  and  _480
REMARK  206  A    between atoms: _483  and  _485
REMARK  207  A    between atoms: _485  and  _486
REMARK  208  A    between atoms: _485  and  _488
REMARK  209  A    between atoms: _488  and  _489
REMARK  210  A    between atoms: _499  and  _501
REMARK  211  A    between atoms: _501  and  _502
REMARK  212  A    between atoms: _501  and  _504
REMARK  213  A    between atoms: _504  and  _505
REMARK  214  A    between atoms: _505  and  _506
REMARK  215  A    between atoms: _509  and  _511
REMARK  216  A    between atoms: _511  and  _512
REMARK  217  A    between atoms: _511  and  _514
REMARK  218  A    between atoms: _514  and  _515
REMARK  219  A    between atoms: _517  and  _519
REMARK  220  A    between atoms: _519  and  _520
REMARK  221  A    between atoms: _519  and  _522
REMARK  222  A    between atoms: _522  and  _523
REMARK  223  A    between atoms: _529  and  _531
REMARK  224  A    between atoms: _531  and  _532
REMARK  225  A    between atoms: _531  and  _534
REMARK  226  A    between atoms: _534  and  _535
REMARK  227  A    between atoms: _538  and  _540
REMARK  228  A    between atoms: _540  and  _541
REMARK  229  A    between atoms: _540  and  _543
REMARK  230  A    between atoms: _546  and  _548
REMARK  231  A    between atoms: _548  and  _549
REMARK  232  A    between atoms: _551  and  _553
REMARK  233  A    between atoms: _553  and  _554
REMARK  234  A    between atoms: _553  and  _556
REMARK  235  A    between atoms: _556  and  _557
REMARK  236  A    between atoms: _560  and  _562
REMARK  237  A    between atoms: _562  and  _563
REMARK  238  A    between atoms: _562  and  _565
REMARK  239  A    between atoms: _565  and  _566
REMARK  240  A    between atoms: _566  and  _567
REMARK  241  A    between atoms: _567  and  _568
REMARK  242  A    between atoms: _568  and  _569
REMARK  243  A    between atoms: _573  and  _575
REMARK  244  A    between atoms: _575  and  _576
REMARK  245  A    between atoms: _575  and  _578
REMARK                            x       y       z     vdW  Elec       q    Type
REMARK                         _______ _______ _______ _____ _____    ______ ____
ROOT
ATOM      1  O   HOH     1       4.692  36.603  29.516  0.00  0.00    +0.000 OA
ENDROOT
TORSDOF 0
REMARK  Name = ../refined-set-2016/2qg2/2qg2_pocket.pdb
REMARK  245 active torsions:
REMARK  status: ('A' for Active; 'I' for Inactive)
REMARK    1  A    between atoms: _1  and  _3
REMARK    2  A    between atoms: _3  and  _4
REMARK    3  A    between atoms: _3  and  _6
REMARK    4  A    between atoms: _6  and  _7
REMARK    5  A    between atoms: _13  and  _15
REMARK    6  A    between atoms: _15  and  _16
REMARK    7  A    between atoms: _15  and  _18
REMARK    8  A    between atoms: _18  and  _19
REMARK    9  A    between atoms: _22  and  _24
REMARK   10  A    between atoms: _24  and  _25
REMARK   11  A    between atoms: _24  and  _27
REMARK   12  A    between atoms: _27  and  _28
REMARK   13  A    between atoms: _31  and  _33
REMARK   14  A    between atoms: _33  and  _34
REMARK   15  A    between atoms: _33  and  _36
REMARK   16  A    between atoms: _36  and  _37
REMARK   17  A    between atoms: _37  and  _38
REMARK   18  A    between atoms: _41  and  _43
REMARK   19  A    between atoms: _43  and  _44
REMARK   20  A    between atoms: _43  and  _46
REMARK   21  A    between atoms: _46  and  _47
REMARK   22  A    between atoms: _50  and  _52
REMARK   23  A    between atoms: _52  and  _53
REMARK   24  A    between atoms: _52  and  _55
REMARK   25  A    between atoms: _55  and  _56
REMARK   26  A    between atoms: _59  and  _61
REMARK   27  A    between atoms: _61  and  _62
REMARK   28  A    between atoms: _61  and  _64
REMARK   29  A    between atoms: _64  and  _65
REMARK   30  A    between atoms: _67  and  _69
REMARK   31  A    between atoms: _69  and  _70
REMARK   32  A    between atoms: _69  and  _72
REMARK   33  A    between atoms: _72  and  _73
REMARK   34  A    between atoms: _78  and  _80
REMARK   35  A    between atoms: _80  and  _81
REMARK   36  A    between atoms: _80  and  _83
REMARK   37  A    between atoms: _83  and  _84
REMARK   38  A    between atoms: _86  and  _88
REMARK   39  A    between atoms: _88  and  _89
REMARK   40  A    between atoms: _88  and  _91
REMARK   41  A    between atoms: _91  and  _92
REMARK   42  A    between atoms: _94  and  _96
REMARK   43  A    between atoms: _96  and  _97
REMARK   44  A    between atoms: _96  and  _99
REMARK   45  A    between atoms: _99  and  _100
REMARK   46  A    between atoms: _103  and  _105
REMARK   47  A    between atoms: _105  and  _106
REMARK   48  A    between atoms: _109  and  _111
REMARK   49  A    between atoms: _111  and  _112
REMARK   50  A    between atoms: _111  and  _114
REMARK   51  A    between atoms: _114  and  _115
REMARK   52  A    between atoms: _118  and  _120
REMARK   53  A    between atoms: _120  and  _121
REMARK   54  A    between atoms: _120  and  _123
REMARK   55  A    between atoms: _123  and  _124
REMARK   56  A    between atoms: _124  and  _125
REMARK   57  A    between atoms: _125  and  _126
REMARK   58  A    between atoms: _126  and  _127
REMARK   59  A    between atoms: _131  and  _133
REMARK   60  A    between atoms: _133  and  _134
REMARK   61  A    between atoms: _133  and  _136
REMARK   62  A    between atoms: _136  and  _137
REMARK   63  A    between atoms: _140  and  _142
REMARK   64  A    between atoms: _142  and  _143
REMARK   65  A    between atoms: _142  and  _145
REMARK   66  A    between atoms: _145  and  _146
REMARK   67  A    between atoms: _149  and  _151
REMARK   68  A    between atoms: _151  and  _152
REMARK   69  A    between atoms: _151  and  _154
REMARK   70  A    between atoms: _157  and  _159
REMARK   71  A    between atoms: _159  and  _160
REMARK   72  A    between atoms: _159  and  _162
REMARK   73  A    between atoms: _162  and  _163
REMARK   74  A    between atoms: _166  and  _168
REMARK   75  A    between atoms: _168  and  _169
REMARK   76  A    between atoms: _168  and  _171
REMARK   77  A    between atoms: _171  and  _172
REMARK   78  A    between atoms: _175  and  _177
REMARK   79  A    between atoms: _177  and  _178
REMARK   80  A    between atoms: _180  and  _182
REMARK   81  A    between atoms: _182  and  _183
REMARK   82  A    between atoms: _182  and  _185
REMARK   83  A    between atoms: _185  and  _186
REMARK   84  A    between atoms: _189  and  _191
REMARK   85  A    between atoms: _191  and  _192
REMARK   86  A    between atoms: _194  and  _196
REMARK   87  A    between atoms: _196  and  _197
REMARK   88  A    between atoms: _196  and  _199
REMARK   89  A    between atoms: _199  and  _200
REMARK   90  A    between atoms: _200  and  _201
REMARK   91  A    between atoms: _203  and  _205
REMARK   92  A    between atoms: _205  and  _206
REMARK   93  A    between atoms: _205  and  _208
REMARK   94  A    between atoms: _208  and  _209
REMARK   95  A    between atoms: _212  and  _214
REMARK   96  A    between atoms: _214  and  _215
REMARK   97  A    between atoms: _218  and  _220
REMARK   98  A    between atoms: _220  and  _221
REMARK   99  A    between atoms: _220  and  _223
REMARK  100  A    between atoms: _223  and  _224
REMARK  101  A    between atoms: _227  and  _229
REMARK  102  A    between atoms: _229  and  _230
REMARK  103  A    between atoms: _229  and  _232
REMARK  104  A    between atoms: _232  and  _233
REMARK  105  A    between atoms: _236  and  _238
REMARK  106  A    between atoms: _238  and  _239
REMARK  107  A    between atoms: _238  and  _241
REMARK  108  A    between atoms: _241  and  _242
REMARK  109  A    between atoms: _245  and  _247
REMARK  110  A    between atoms: _247  and  _248
REMARK  111  A    between atoms: _247  and  _250
REMARK  112  A    between atoms: _250  and  _251
REMARK  113  A    between atoms: _256  and  _258
REMARK  114  A    between atoms: _258  and  _259
REMARK  115  A    between atoms: _258  and  _261
REMARK  116  A    between atoms: _261  and  _262
REMARK  117  A    between atoms: _267  and  _269
REMARK  118  A    between atoms: _269  and  _270
REMARK  119  A    between atoms: _269  and  _272
REMARK  120  A    between atoms: _272  and  _273
REMARK  121  A    between atoms: _276  and  _278
REMARK  122  A    between atoms: _278  and  _279
REMARK  123  A    between atoms: _281  and  _283
REMARK  124  A    between atoms: _283  and  _284
REMARK  125  A    between atoms: _283  and  _286
REMARK  126  A    between atoms: _286  and  _287
REMARK  127  A    between atoms: _290  and  _292
REMARK  128  A    between atoms: _292  and  _293
REMARK  129  A    between atoms: _292  and  _295
REMARK  130  A    between atoms: _295  and  _296
REMARK  131  A    between atoms: _299  and  _301
REMARK  132  A    between atoms: _301  and  _302
REMARK  133  A    between atoms: _305  and  _307
REMARK  134  A    between atoms: _307  and  _308
REMARK  135  A    between atoms: _307  and  _310
REMARK  136  A    between atoms: _310  and  _311
REMARK  137  A    between atoms: _311  and  _312
REMARK  138  A    between atoms: _312  and  _313
REMARK  139  A    between atoms: _313  and  _314
REMARK  140  A    between atoms: _318  and  _320
REMARK  141  A    between atoms: _320  and  _321
REMARK  142  A    between atoms: _323  and  _325
REMARK  143  A    between atoms: _325  and  _326
REMARK  144  A    between atoms: _325  and  _328
REMARK  145  A    between atoms: _328  and  _329
REMARK  146  A    between atoms: _332  and  _334
REMARK  147  A    between atoms: _334  and  _335
REMARK  148  A    between atoms: _334  and  _337
REMARK  149  A    between atoms: _337  and  _338
REMARK  150  A    between atoms: _344  and  _346
REMARK  151  A    between atoms: _346  and  _347
REMARK  152  A    between atoms: _349  and  _351
REMARK  153  A    between atoms: _351  and  _352
REMARK  154  A    between atoms: _351  and  _354
REMARK  155  A    between atoms: _357  and  _359
REMARK  156  A    between atoms: _359  and  _360
REMARK  157  A    between atoms: _362  and  _364
REMARK  158  A    between atoms: _364  and  _365
REMARK  159  A    between atoms: _364  and  _367
REMARK  160  A    between atoms: _367  and  _368
REMARK  161  A    between atoms: _374  and  _376
REMARK  162  A    between atoms: _376  and  _377
REMARK  163  A    between atoms: _376  and  _379
REMARK  164  A    between atoms: _379  and  _380
REMARK  165  A    between atoms: _385  and  _386
REMARK  166  A    between atoms: _388  and  _390
REMARK  167  A    between atoms: _390  and  _391
REMARK  168  A    between atoms: _390  and  _393
REMARK  169  A    between atoms: _393  and  _394
REMARK  170  A    between atoms: _396  and  _398
REMARK  171  A    between atoms: _398  and  _399
REMARK  172  A    between atoms: _398  and  _401
REMARK  173  A    between atoms: _401  and  _402
REMARK  174  A    between atoms: _407  and  _408
REMARK  175  A    between atoms: _410  and  _412
REMARK  176  A    between atoms: _412  and  _413
REMARK  177  A    between atoms: _412  and  _415
REMARK  178  A    between atoms: _418  and  _420
REMARK  179  A    between atoms: _420  and  _421
REMARK  180  A    between atoms: _420  and  _423
REMARK  181  A    between atoms: _423  and  _424
REMARK  182  A    between atoms: _427  and  _429
REMARK  183  A    between atoms: _429  and  _430
REMARK  184  A    between atoms: _429  and  _432
REMARK  185  A    between atoms: _435  and  _437
REMARK  186  A    between atoms: _437  and  _438
REMARK  187  A    between atoms: _437  and  _440
REMARK  188  A    between atoms: _440  and  _441
REMARK  189  A    between atoms: _444  and  _446
REMARK  190  A    between atoms: _446  and  _447
REMARK  191  A    between atoms: _446  and  _449
REMARK  192  A    between atoms: _449  and  _450
REMARK  193  A    between atoms: _453  and  _455
REMARK  194  A    between atoms: _455  and  _456
REMARK  195  A    between atoms: _455  and  _458
REMARK  196  A    between atoms: _458  and  _459
REMARK  197  A    between atoms: _459  and  _460
REMARK  198  A    between atoms: _460  and  _461
REMARK  199  A    between atoms: _461  and  _462
REMARK  200  A    between atoms: _466  and  _468
REMARK  201  A    between atoms: _468  and  _469
REMARK  202  A    between atoms: _468  and  _471
REMARK  203  A    between atoms: _471  and  _472
REMARK  204  A    between atoms: _477  and  _479
REMARK  205  A    between atoms: _479  and  _480
REMARK  206  A    between atoms: _483  and  _485
REMARK  207  A    between atoms: _485  and  _486
REMARK  208  A    between atoms: _485  and  _488
REMARK  209  A    between atoms: _488  and  _489
REMARK  210  A    between atoms: _499  and  _501
REMARK  211  A    between atoms: _501  and  _502
REMARK  212  A    between atoms: _501  and  _504
REMARK  213  A    between atoms: _504  and  _505
REMARK  214  A    between atoms: _505  and  _506
REMARK  215  A    between atoms: _509  and  _511
REMARK  216  A    between atoms: _511  and  _512
REMARK  217  A    between atoms: _511  and  _514
REMARK  218  A    between atoms: _514  and  _515
REMARK  219  A    between atoms: _517  and  _519
REMARK  220  A    between atoms: _519  and  _520
REMARK  221  A    between atoms: _519  and  _522
REMARK  222  A    between atoms: _522  and  _523
REMARK  223  A    between atoms: _529  and  _531
REMARK  224  A    between atoms: _531  and  _532
REMARK  225  A    between atoms: _531  and  _534
REMARK  226  A    between atoms: _534  and  _535
REMARK  227  A    between atoms: _538  and  _540
REMARK  228  A    between atoms: _540  and  _541
REMARK  229  A    between atoms: _540  and  _543
REMARK  230  A    between atoms: _546  and  _548
REMARK  231  A    between atoms: _548  and  _549
REMARK  232  A    between atoms: _551  and  _553
REMARK  233  A    between atoms: _553  and  _554
REMARK  234  A    between atoms: _553  and  _556
REMARK  235  A    between atoms: _556  and  _557
REMARK  236  A    between atoms: _560  and  _562
REMARK  237  A    between atoms: _562  and  _563
REMARK  238  A    between atoms: _562  and  _565
REMARK  239  A    between atoms: _565  and  _566
REMARK  240  A    between atoms: _566  and  _567
REMARK  241  A    between atoms: _567  and  _568
REMARK  242  A    between atoms: _568  and  _569
REMARK  243  A    between atoms: _573  and  _575
REMARK  244  A    between atoms: _575  and  _576
REMARK  245  A    between atoms: _575  and  _578
REMARK                            x       y       z     vdW  Elec       q    Type
REMARK                         _______ _______ _______ _____ _____    ______ ____
ROOT
ATOM      1  O   HOH     1       5.579  40.373  27.198  0.00  0.00    +0.000 OA
ENDROOT
TORSDOF 0
REMARK  Name = ../refined-set-2016/2qg2/2qg2_pocket.pdb
REMARK  245 active torsions:
REMARK  status: ('A' for Active; 'I' for Inactive)
REMARK    1  A    between atoms: _1  and  _3
REMARK    2  A    between atoms: _3  and  _4
REMARK    3  A    between atoms: _3  and  _6
REMARK    4  A    between atoms: _6  and  _7
REMARK    5  A    between atoms: _13  and  _15
REMARK    6  A    between atoms: _15  and  _16
REMARK    7  A    between atoms: _15  and  _18
REMARK    8  A    between atoms: _18  and  _19
REMARK    9  A    between atoms: _22  and  _24
REMARK   10  A    between atoms: _24  and  _25
REMARK   11  A    between atoms: _24  and  _27
REMARK   12  A    between atoms: _27  and  _28
REMARK   13  A    between atoms: _31  and  _33
REMARK   14  A    between atoms: _33  and  _34
REMARK   15  A    between atoms: _33  and  _36
REMARK   16  A    between atoms: _36  and  _37
REMARK   17  A    between atoms: _37  and  _38
REMARK   18  A    between atoms: _41  and  _43
REMARK   19  A    between atoms: _43  and  _44
REMARK   20  A    between atoms: _43  and  _46
REMARK   21  A    between atoms: _46  and  _47
REMARK   22  A    between atoms: _50  and  _52
REMARK   23  A    between atoms: _52  and  _53
REMARK   24  A    between atoms: _52  and  _55
REMARK   25  A    between atoms: _55  and  _56
REMARK   26  A    between atoms: _59  and  _61
REMARK   27  A    between atoms: _61  and  _62
REMARK   28  A    between atoms: _61  and  _64
REMARK   29  A    between atoms: _64  and  _65
REMARK   30  A    between atoms: _67  and  _69
REMARK   31  A    between atoms: _69  and  _70
REMARK   32  A    between atoms: _69  and  _72
REMARK   33  A    between atoms: _72  and  _73
REMARK   34  A    between atoms: _78  and  _80
REMARK   35  A    between atoms: _80  and  _81
REMARK   36  A    between atoms: _80  and  _83
REMARK   37  A    between atoms: _83  and  _84
REMARK   38  A    between atoms: _86  and  _88
REMARK   39  A    between atoms: _88  and  _89
REMARK   40  A    between atoms: _88  and  _91
REMARK   41  A    between atoms: _91  and  _92
REMARK   42  A    between atoms: _94  and  _96
REMARK   43  A    between atoms: _96  and  _97
REMARK   44  A    between atoms: _96  and  _99
REMARK   45  A    between atoms: _99  and  _100
REMARK   46  A    between atoms: _103  and  _105
REMARK   47  A    between atoms: _105  and  _106
REMARK   48  A    between atoms: _109  and  _111
REMARK   49  A    between atoms: _111  and  _112
REMARK   50  A    between atoms: _111  and  _114
REMARK   51  A    between atoms: _114  and  _115
REMARK   52  A    between atoms: _118  and  _120
REMARK   53  A    between atoms: _120  and  _121
REMARK   54  A    between atoms: _120  and  _123
REMARK   55  A    between atoms: _123  and  _124
REMARK   56  A    between atoms: _124  and  _125
REMARK   57  A    between atoms: _125  and  _126
REMARK   58  A    between atoms: _126  and  _127
REMARK   59  A    between atoms: _131  and  _133
REMARK   60  A    between atoms: _133  and  _134
REMARK   61  A    between atoms: _133  and  _136
REMARK   62  A    between atoms: _136  and  _137
REMARK   63  A    between atoms: _140  and  _142
REMARK   64  A    between atoms: _142  and  _143
REMARK   65  A    between atoms: _142  and  _145
REMARK   66  A    between atoms: _145  and  _146
REMARK   67  A    between atoms: _149  and  _151
REMARK   68  A    between atoms: _151  and  _152
REMARK   69  A    between atoms: _151  and  _154
REMARK   70  A    between atoms: _157  and  _159
REMARK   71  A    between atoms: _159  and  _160
REMARK   72  A    between atoms: _159  and  _162
REMARK   73  A    between atoms: _162  and  _163
REMARK   74  A    between atoms: _166  and  _168
REMARK   75  A    between atoms: _168  and  _169
REMARK   76  A    between atoms: _168  and  _171
REMARK   77  A    between atoms: _171  and  _172
REMARK   78  A    between atoms: _175  and  _177
REMARK   79  A    between atoms: _177  and  _178
REMARK   80  A    between atoms: _180  and  _182
REMARK   81  A    between atoms: _182  and  _183
REMARK   82  A    between atoms: _182  and  _185
REMARK   83  A    between atoms: _185  and  _186
REMARK   84  A    between atoms: _189  and  _191
REMARK   85  A    between atoms: _191  and  _192
REMARK   86  A    between atoms: _194  and  _196
REMARK   87  A    between atoms: _196  and  _197
REMARK   88  A    between atoms: _196  and  _199
REMARK   89  A    between atoms: _199  and  _200
REMARK   90  A    between atoms: _200  and  _201
REMARK   91  A    between atoms: _203  and  _205
REMARK   92  A    between atoms: _205  and  _206
REMARK   93  A    between atoms: _205  and  _208
REMARK   94  A    between atoms: _208  and  _209
REMARK   95  A    between atoms: _212  and  _214
REMARK   96  A    between atoms: _214  and  _215
REMARK   97  A    between atoms: _218  and  _220
REMARK   98  A    between atoms: _220  and  _221
REMARK   99  A    between atoms: _220  and  _223
REMARK  100  A    between atoms: _223  and  _224
REMARK  101  A    between atoms: _227  and  _229
REMARK  102  A    between atoms: _229  and  _230
REMARK  103  A    between atoms: _229  and  _232
REMARK  104  A    between atoms: _232  and  _233
REMARK  105  A    between atoms: _236  and  _238
REMARK  106  A    between atoms: _238  and  _239
REMARK  107  A    between atoms: _238  and  _241
REMARK  108  A    between atoms: _241  and  _242
REMARK  109  A    between atoms: _245  and  _247
REMARK  110  A    between atoms: _247  and  _248
REMARK  111  A    between atoms: _247  and  _250
REMARK  112  A    between atoms: _250  and  _251
REMARK  113  A    between atoms: _256  and  _258
REMARK  114  A    between atoms: _258  and  _259
REMARK  115  A    between atoms: _258  and  _261
REMARK  116  A    between atoms: _261  and  _262
REMARK  117  A    between atoms: _267  and  _269
REMARK  118  A    between atoms: _269  and  _270
REMARK  119  A    between atoms: _269  and  _272
REMARK  120  A    between atoms: _272  and  _273
REMARK  121  A    between atoms: _276  and  _278
REMARK  122  A    between atoms: _278  and  _279
REMARK  123  A    between atoms: _281  and  _283
REMARK  124  A    between atoms: _283  and  _284
REMARK  125  A    between atoms: _283  and  _286
REMARK  126  A    between atoms: _286  and  _287
REMARK  127  A    between atoms: _290  and  _292
REMARK  128  A    between atoms: _292  and  _293
REMARK  129  A    between atoms: _292  and  _295
REMARK  130  A    between atoms: _295  and  _296
REMARK  131  A    between atoms: _299  and  _301
REMARK  132  A    between atoms: _301  and  _302
REMARK  133  A    between atoms: _305  and  _307
REMARK  134  A    between atoms: _307  and  _308
REMARK  135  A    between atoms: _307  and  _310
REMARK  136  A    between atoms: _310  and  _311
REMARK  137  A    between atoms: _311  and  _312
REMARK  138  A    between atoms: _312  and  _313
REMARK  139  A    between atoms: _313  and  _314
REMARK  140  A    between atoms: _318  and  _320
REMARK  141  A    between atoms: _320  and  _321
REMARK  142  A    between atoms: _323  and  _325
REMARK  143  A    between atoms: _325  and  _326
REMARK  144  A    between atoms: _325  and  _328
REMARK  145  A    between atoms: _328  and  _329
REMARK  146  A    between atoms: _332  and  _334
REMARK  147  A    between atoms: _334  and  _335
REMARK  148  A    between atoms: _334  and  _337
REMARK  149  A    between atoms: _337  and  _338
REMARK  150  A    between atoms: _344  and  _346
REMARK  151  A    between atoms: _346  and  _347
REMARK  152  A    between atoms: _349  and  _351
REMARK  153  A    between atoms: _351  and  _352
REMARK  154  A    between atoms: _351  and  _354
REMARK  155  A    between atoms: _357  and  _359
REMARK  156  A    between atoms: _359  and  _360
REMARK  157  A    between atoms: _362  and  _364
REMARK  158  A    between atoms: _364  and  _365
REMARK  159  A    between atoms: _364  and  _367
REMARK  160  A    between atoms: _367  and  _368
REMARK  161  A    between atoms: _374  and  _376
REMARK  162  A    between atoms: _376  and  _377
REMARK  163  A    between atoms: _376  and  _379
REMARK  164  A    between atoms: _379  and  _380
REMARK  165  A    between atoms: _385  and  _386
REMARK  166  A    between atoms: _388  and  _390
REMARK  167  A    between atoms: _390  and  _391
REMARK  168  A    between atoms: _390  and  _393
REMARK  169  A    between atoms: _393  and  _394
REMARK  170  A    between atoms: _396  and  _398
REMARK  171  A    between atoms: _398  and  _399
REMARK  172  A    between atoms: _398  and  _401
REMARK  173  A    between atoms: _401  and  _402
REMARK  174  A    between atoms: _407  and  _408
REMARK  175  A    between atoms: _410  and  _412
REMARK  176  A    between atoms: _412  and  _413
REMARK  177  A    between atoms: _412  and  _415
REMARK  178  A    between atoms: _418  and  _420
REMARK  179  A    between atoms: _420  and  _421
REMARK  180  A    between atoms: _420  and  _423
REMARK  181  A    between atoms: _423  and  _424
REMARK  182  A    between atoms: _427  and  _429
REMARK  183  A    between atoms: _429  and  _430
REMARK  184  A    between atoms: _429  and  _432
REMARK  185  A    between atoms: _435  and  _437
REMARK  186  A    between atoms: _437  and  _438
REMARK  187  A    between atoms: _437  and  _440
REMARK  188  A    between atoms: _440  and  _441
REMARK  189  A    between atoms: _444  and  _446
REMARK  190  A    between atoms: _446  and  _447
REMARK  191  A    between atoms: _446  and  _449
REMARK  192  A    between atoms: _449  and  _450
REMARK  193  A    between atoms: _453  and  _455
REMARK  194  A    between atoms: _455  and  _456
REMARK  195  A    between atoms: _455  and  _458
REMARK  196  A    between atoms: _458  and  _459
REMARK  197  A    between atoms: _459  and  _460
REMARK  198  A    between atoms: _460  and  _461
REMARK  199  A    between atoms: _461  and  _462
REMARK  200  A    between atoms: _466  and  _468
REMARK  201  A    between atoms: _468  and  _469
REMARK  202  A    between atoms: _468  and  _471
REMARK  203  A    between atoms: _471  and  _472
REMARK  204  A    between atoms: _477  and  _479
REMARK  205  A    between atoms: _479  and  _480
REMARK  206  A    between atoms: _483  and  _485
REMARK  207  A    between atoms: _485  and  _486
REMARK  208  A    between atoms: _485  and  _488
REMARK  209  A    between atoms: _488  and  _489
REMARK  210  A    between atoms: _499  and  _501
REMARK  211  A    between atoms: _501  and  _502
REMARK  212  A    between atoms: _501  and  _504
REMARK  213  A    between atoms: _504  and  _505
REMARK  214  A    between atoms: _505  and  _506
REMARK  215  A    between atoms: _509  and  _511
REMARK  216  A    between atoms: _511  and  _512
REMARK  217  A    between atoms: _511  and  _514
REMARK  218  A    between atoms: _514  and  _515
REMARK  219  A    between atoms: _517  and  _519
REMARK  220  A    between atoms: _519  and  _520
REMARK  221  A    between atoms: _519  and  _522
REMARK  222  A    between atoms: _522  and  _523
REMARK  223  A    between atoms: _529  and  _531
REMARK  224  A    between atoms: _531  and  _532
REMARK  225  A    between atoms: _531  and  _534
REMARK  226  A    between atoms: _534  and  _535
REMARK  227  A    between atoms: _538  and  _540
REMARK  228  A    between atoms: _540  and  _541
REMARK  229  A    between atoms: _540  and  _543
REMARK  230  A    between atoms: _546  and  _548
REMARK  231  A    between atoms: _548  and  _549
REMARK  232  A    between atoms: _551  and  _553
REMARK  233  A    between atoms: _553  and  _554
REMARK  234  A    between atoms: _553  and  _556
REMARK  235  A    between atoms: _556  and  _557
REMARK  236  A    between atoms: _560  and  _562
REMARK  237  A    between atoms: _562  and  _563
REMARK  238  A    between atoms: _562  and  _565
REMARK  239  A    between atoms: _565  and  _566
REMARK  240  A    between atoms: _566  and  _567
REMARK  241  A    between atoms: _567  and  _568
REMARK  242  A    between atoms: _568  and  _569
REMARK  243  A    between atoms: _573  and  _575
REMARK  244  A    between atoms: _575  and  _576
REMARK  245  A    between atoms: _575  and  _578
REMARK                            x       y       z     vdW  Elec       q    Type
REMARK                         _______ _______ _______ _____ _____    ______ ____
ROOT
ATOM      1  O   HOH     1      10.123  43.784  29.038  0.00  0.00    +0.000 OA
ENDROOT
TORSDOF 0
REMARK  Name = ../refined-set-2016/2qg2/2qg2_pocket.pdb
REMARK  245 active torsions:
REMARK  status: ('A' for Active; 'I' for Inactive)
REMARK    1  A    between atoms: _1  and  _3
REMARK    2  A    between atoms: _3  and  _4
REMARK    3  A    between atoms: _3  and  _6
REMARK    4  A    between atoms: _6  and  _7
REMARK    5  A    between atoms: _13  and  _15
REMARK    6  A    between atoms: _15  and  _16
REMARK    7  A    between atoms: _15  and  _18
REMARK    8  A    between atoms: _18  and  _19
REMARK    9  A    between atoms: _22  and  _24
REMARK   10  A    between atoms: _24  and  _25
REMARK   11  A    between atoms: _24  and  _27
REMARK   12  A    between atoms: _27  and  _28
REMARK   13  A    between atoms: _31  and  _33
REMARK   14  A    between atoms: _33  and  _34
REMARK   15  A    between atoms: _33  and  _36
REMARK   16  A    between atoms: _36  and  _37
REMARK   17  A    between atoms: _37  and  _38
REMARK   18  A    between atoms: _41  and  _43
REMARK   19  A    between atoms: _43  and  _44
REMARK   20  A    between atoms: _43  and  _46
REMARK   21  A    between atoms: _46  and  _47
REMARK   22  A    between atoms: _50  and  _52
REMARK   23  A    between atoms: _52  and  _53
REMARK   24  A    between atoms: _52  and  _55
REMARK   25  A    between atoms: _55  and  _56
REMARK   26  A    between atoms: _59  and  _61
REMARK   27  A    between atoms: _61  and  _62
REMARK   28  A    between atoms: _61  and  _64
REMARK   29  A    between atoms: _64  and  _65
REMARK   30  A    between atoms: _67  and  _69
REMARK   31  A    between atoms: _69  and  _70
REMARK   32  A    between atoms: _69  and  _72
REMARK   33  A    between atoms: _72  and  _73
REMARK   34  A    between atoms: _78  and  _80
REMARK   35  A    between atoms: _80  and  _81
REMARK   36  A    between atoms: _80  and  _83
REMARK   37  A    between atoms: _83  and  _84
REMARK   38  A    between atoms: _86  and  _88
REMARK   39  A    between atoms: _88  and  _89
REMARK   40  A    between atoms: _88  and  _91
REMARK   41  A    between atoms: _91  and  _92
REMARK   42  A    between atoms: _94  and  _96
REMARK   43  A    between atoms: _96  and  _97
REMARK   44  A    between atoms: _96  and  _99
REMARK   45  A    between atoms: _99  and  _100
REMARK   46  A    between atoms: _103  and  _105
REMARK   47  A    between atoms: _105  and  _106
REMARK   48  A    between atoms: _109  and  _111
REMARK   49  A    between atoms: _111  and  _112
REMARK   50  A    between atoms: _111  and  _114
REMARK   51  A    between atoms: _114  and  _115
REMARK   52  A    between atoms: _118  and  _120
REMARK   53  A    between atoms: _120  and  _121
REMARK   54  A    between atoms: _120  and  _123
REMARK   55  A    between atoms: _123  and  _124
REMARK   56  A    between atoms: _124  and  _125
REMARK   57  A    between atoms: _125  and  _126
REMARK   58  A    between atoms: _126  and  _127
REMARK   59  A    between atoms: _131  and  _133
REMARK   60  A    between atoms: _133  and  _134
REMARK   61  A    between atoms: _133  and  _136
REMARK   62  A    between atoms: _136  and  _137
REMARK   63  A    between atoms: _140  and  _142
REMARK   64  A    between atoms: _142  and  _143
REMARK   65  A    between atoms: _142  and  _145
REMARK   66  A    between atoms: _145  and  _146
REMARK   67  A    between atoms: _149  and  _151
REMARK   68  A    between atoms: _151  and  _152
REMARK   69  A    between atoms: _151  and  _154
REMARK   70  A    between atoms: _157  and  _159
REMARK   71  A    between atoms: _159  and  _160
REMARK   72  A    between atoms: _159  and  _162
REMARK   73  A    between atoms: _162  and  _163
REMARK   74  A    between atoms: _166  and  _168
REMARK   75  A    between atoms: _168  and  _169
REMARK   76  A    between atoms: _168  and  _171
REMARK   77  A    between atoms: _171  and  _172
REMARK   78  A    between atoms: _175  and  _177
REMARK   79  A    between atoms: _177  and  _178
REMARK   80  A    between atoms: _180  and  _182
REMARK   81  A    between atoms: _182  and  _183
REMARK   82  A    between atoms: _182  and  _185
REMARK   83  A    between atoms: _185  and  _186
REMARK   84  A    between atoms: _189  and  _191
REMARK   85  A    between atoms: _191  and  _192
REMARK   86  A    between atoms: _194  and  _196
REMARK   87  A    between atoms: _196  and  _197
REMARK   88  A    between atoms: _196  and  _199
REMARK   89  A    between atoms: _199  and  _200
REMARK   90  A    between atoms: _200  and  _201
REMARK   91  A    between atoms: _203  and  _205
REMARK   92  A    between atoms: _205  and  _206
REMARK   93  A    between atoms: _205  and  _208
REMARK   94  A    between atoms: _208  and  _209
REMARK   95  A    between atoms: _212  and  _214
REMARK   96  A    between atoms: _214  and  _215
REMARK   97  A    between atoms: _218  and  _220
REMARK   98  A    between atoms: _220  and  _221
REMARK   99  A    between atoms: _220  and  _223
REMARK  100  A    between atoms: _223  and  _224
REMARK  101  A    between atoms: _227  and  _229
REMARK  102  A    between atoms: _229  and  _230
REMARK  103  A    between atoms: _229  and  _232
REMARK  104  A    between atoms: _232  and  _233
REMARK  105  A    between atoms: _236  and  _238
REMARK  106  A    between atoms: _238  and  _239
REMARK  107  A    between atoms: _238  and  _241
REMARK  108  A    between atoms: _241  and  _242
REMARK  109  A    between atoms: _245  and  _247
REMARK  110  A    between atoms: _247  and  _248
REMARK  111  A    between atoms: _247  and  _250
REMARK  112  A    between atoms: _250  and  _251
REMARK  113  A    between atoms: _256  and  _258
REMARK  114  A    between atoms: _258  and  _259
REMARK  115  A    between atoms: _258  and  _261
REMARK  116  A    between atoms: _261  and  _262
REMARK  117  A    between atoms: _267  and  _269
REMARK  118  A    between atoms: _269  and  _270
REMARK  119  A    between atoms: _269  and  _272
REMARK  120  A    between atoms: _272  and  _273
REMARK  121  A    between atoms: _276  and  _278
REMARK  122  A    between atoms: _278  and  _279
REMARK  123  A    between atoms: _281  and  _283
REMARK  124  A    between atoms: _283  and  _284
REMARK  125  A    between atoms: _283  and  _286
REMARK  126  A    between atoms: _286  and  _287
REMARK  127  A    between atoms: _290  and  _292
REMARK  128  A    between atoms: _292  and  _293
REMARK  129  A    between atoms: _292  and  _295
REMARK  130  A    between atoms: _295  and  _296
REMARK  131  A    between atoms: _299  and  _301
REMARK  132  A    between atoms: _301  and  _302
REMARK  133  A    between atoms: _305  and  _307
REMARK  134  A    between atoms: _307  and  _308
REMARK  135  A    between atoms: _307  and  _310
REMARK  136  A    between atoms: _310  and  _311
REMARK  137  A    between atoms: _311  and  _312
REMARK  138  A    between atoms: _312  and  _313
REMARK  139  A    between atoms: _313  and  _314
REMARK  140  A    between atoms: _318  and  _320
REMARK  141  A    between atoms: _320  and  _321
REMARK  142  A    between atoms: _323  and  _325
REMARK  143  A    between atoms: _325  and  _326
REMARK  144  A    between atoms: _325  and  _328
REMARK  145  A    between atoms: _328  and  _329
REMARK  146  A    between atoms: _332  and  _334
REMARK  147  A    between atoms: _334  and  _335
REMARK  148  A    between atoms: _334  and  _337
REMARK  149  A    between atoms: _337  and  _338
REMARK  150  A    between atoms: _344  and  _346
REMARK  151  A    between atoms: _346  and  _347
REMARK  152  A    between atoms: _349  and  _351
REMARK  153  A    between atoms: _351  and  _352
REMARK  154  A    between atoms: _351  and  _354
REMARK  155  A    between atoms: _357  and  _359
REMARK  156  A    between atoms: _359  and  _360
REMARK  157  A    between atoms: _362  and  _364
REMARK  158  A    between atoms: _364  and  _365
REMARK  159  A    between atoms: _364  and  _367
REMARK  160  A    between atoms: _367  and  _368
REMARK  161  A    between atoms: _374  and  _376
REMARK  162  A    between atoms: _376  and  _377
REMARK  163  A    between atoms: _376  and  _379
REMARK  164  A    between atoms: _379  and  _380
REMARK  165  A    between atoms: _385  and  _386
REMARK  166  A    between atoms: _388  and  _390
REMARK  167  A    between atoms: _390  and  _391
REMARK  168  A    between atoms: _390  and  _393
REMARK  169  A    between atoms: _393  and  _394
REMARK  170  A    between atoms: _396  and  _398
REMARK  171  A    between atoms: _398  and  _399
REMARK  172  A    between atoms: _398  and  _401
REMARK  173  A    between atoms: _401  and  _402
REMARK  174  A    between atoms: _407  and  _408
REMARK  175  A    between atoms: _410  and  _412
REMARK  176  A    between atoms: _412  and  _413
REMARK  177  A    between atoms: _412  and  _415
REMARK  178  A    between atoms: _418  and  _420
REMARK  179  A    between atoms: _420  and  _421
REMARK  180  A    between atoms: _420  and  _423
REMARK  181  A    between atoms: _423  and  _424
REMARK  182  A    between atoms: _427  and  _429
REMARK  183  A    between atoms: _429  and  _430
REMARK  184  A    between atoms: _429  and  _432
REMARK  185  A    between atoms: _435  and  _437
REMARK  186  A    between atoms: _437  and  _438
REMARK  187  A    between atoms: _437  and  _440
REMARK  188  A    between atoms: _440  and  _441
REMARK  189  A    between atoms: _444  and  _446
REMARK  190  A    between atoms: _446  and  _447
REMARK  191  A    between atoms: _446  and  _449
REMARK  192  A    between atoms: _449  and  _450
REMARK  193  A    between atoms: _453  and  _455
REMARK  194  A    between atoms: _455  and  _456
REMARK  195  A    between atoms: _455  and  _458
REMARK  196  A    between atoms: _458  and  _459
REMARK  197  A    between atoms: _459  and  _460
REMARK  198  A    between atoms: _460  and  _461
REMARK  199  A    between atoms: _461  and  _462
REMARK  200  A    between atoms: _466  and  _468
REMARK  201  A    between atoms: _468  and  _469
REMARK  202  A    between atoms: _468  and  _471
REMARK  203  A    between atoms: _471  and  _472
REMARK  204  A    between atoms: _477  and  _479
REMARK  205  A    between atoms: _479  and  _480
REMARK  206  A    between atoms: _483  and  _485
REMARK  207  A    between atoms: _485  and  _486
REMARK  208  A    between atoms: _485  and  _488
REMARK  209  A    between atoms: _488  and  _489
REMARK  210  A    between atoms: _499  and  _501
REMARK  211  A    between atoms: _501  and  _502
REMARK  212  A    between atoms: _501  and  _504
REMARK  213  A    between atoms: _504  and  _505
REMARK  214  A    between atoms: _505  and  _506
REMARK  215  A    between atoms: _509  and  _511
REMARK  216  A    between atoms: _511  and  _512
REMARK  217  A    between atoms: _511  and  _514
REMARK  218  A    between atoms: _514  and  _515
REMARK  219  A    between atoms: _517  and  _519
REMARK  220  A    between atoms: _519  and  _520
REMARK  221  A    between atoms: _519  and  _522
REMARK  222  A    between atoms: _522  and  _523
REMARK  223  A    between atoms: _529  and  _531
REMARK  224  A    between atoms: _531  and  _532
REMARK  225  A    between atoms: _531  and  _534
REMARK  226  A    between atoms: _534  and  _535
REMARK  227  A    between atoms: _538  and  _540
REMARK  228  A    between atoms: _540  and  _541
REMARK  229  A    between atoms: _540  and  _543
REMARK  230  A    between atoms: _546  and  _548
REMARK  231  A    between atoms: _548  and  _549
REMARK  232  A    between atoms: _551  and  _553
REMARK  233  A    between atoms: _553  and  _554
REMARK  234  A    between atoms: _553  and  _556
REMARK  235  A    between atoms: _556  and  _557
REMARK  236  A    between atoms: _560  and  _562
REMARK  237  A    between atoms: _562  and  _563
REMARK  238  A    between atoms: _562  and  _565
REMARK  239  A    between atoms: _565  and  _566
REMARK  240  A    between atoms: _566  and  _567
REMARK  241  A    between atoms: _567  and  _568
REMARK  242  A    between atoms: _568  and  _569
REMARK  243  A    between atoms: _573  and  _575
REMARK  244  A    between atoms: _575  and  _576
REMARK  245  A    between atoms: _575  and  _578
REMARK                            x       y       z     vdW  Elec       q    Type
REMARK                         _______ _______ _______ _____ _____    ______ ____
ROOT
ATOM      1  O   HOH     1       9.728  32.416  24.353  0.00  0.00    +0.000 OA
ENDROOT
TORSDOF 0
REMARK  Name = ../refined-set-2016/2qg2/2qg2_pocket.pdb
REMARK  245 active torsions:
REMARK  status: ('A' for Active; 'I' for Inactive)
REMARK    1  A    between atoms: _1  and  _3
REMARK    2  A    between atoms: _3  and  _4
REMARK    3  A    between atoms: _3  and  _6
REMARK    4  A    between atoms: _6  and  _7
REMARK    5  A    between atoms: _13  and  _15
REMARK    6  A    between atoms: _15  and  _16
REMARK    7  A    between atoms: _15  and  _18
REMARK    8  A    between atoms: _18  and  _19
REMARK    9  A    between atoms: _22  and  _24
REMARK   10  A    between atoms: _24  and  _25
REMARK   11  A    between atoms: _24  and  _27
REMARK   12  A    between atoms: _27  and  _28
REMARK   13  A    between atoms: _31  and  _33
REMARK   14  A    between atoms: _33  and  _34
REMARK   15  A    between atoms: _33  and  _36
REMARK   16  A    between atoms: _36  and  _37
REMARK   17  A    between atoms: _37  and  _38
REMARK   18  A    between atoms: _41  and  _43
REMARK   19  A    between atoms: _43  and  _44
REMARK   20  A    between atoms: _43  and  _46
REMARK   21  A    between atoms: _46  and  _47
REMARK   22  A    between atoms: _50  and  _52
REMARK   23  A    between atoms: _52  and  _53
REMARK   24  A    between atoms: _52  and  _55
REMARK   25  A    between atoms: _55  and  _56
REMARK   26  A    between atoms: _59  and  _61
REMARK   27  A    between atoms: _61  and  _62
REMARK   28  A    between atoms: _61  and  _64
REMARK   29  A    between atoms: _64  and  _65
REMARK   30  A    between atoms: _67  and  _69
REMARK   31  A    between atoms: _69  and  _70
REMARK   32  A    between atoms: _69  and  _72
REMARK   33  A    between atoms: _72  and  _73
REMARK   34  A    between atoms: _78  and  _80
REMARK   35  A    between atoms: _80  and  _81
REMARK   36  A    between atoms: _80  and  _83
REMARK   37  A    between atoms: _83  and  _84
REMARK   38  A    between atoms: _86  and  _88
REMARK   39  A    between atoms: _88  and  _89
REMARK   40  A    between atoms: _88  and  _91
REMARK   41  A    between atoms: _91  and  _92
REMARK   42  A    between atoms: _94  and  _96
REMARK   43  A    between atoms: _96  and  _97
REMARK   44  A    between atoms: _96  and  _99
REMARK   45  A    between atoms: _99  and  _100
REMARK   46  A    between atoms: _103  and  _105
REMARK   47  A    between atoms: _105  and  _106
REMARK   48  A    between atoms: _109  and  _111
REMARK   49  A    between atoms: _111  and  _112
REMARK   50  A    between atoms: _111  and  _114
REMARK   51  A    between atoms: _114  and  _115
REMARK   52  A    between atoms: _118  and  _120
REMARK   53  A    between atoms: _120  and  _121
REMARK   54  A    between atoms: _120  and  _123
REMARK   55  A    between atoms: _123  and  _124
REMARK   56  A    between atoms: _124  and  _125
REMARK   57  A    between atoms: _125  and  _126
REMARK   58  A    between atoms: _126  and  _127
REMARK   59  A    between atoms: _131  and  _133
REMARK   60  A    between atoms: _133  and  _134
REMARK   61  A    between atoms: _133  and  _136
REMARK   62  A    between atoms: _136  and  _137
REMARK   63  A    between atoms: _140  and  _142
REMARK   64  A    between atoms: _142  and  _143
REMARK   65  A    between atoms: _142  and  _145
REMARK   66  A    between atoms: _145  and  _146
REMARK   67  A    between atoms: _149  and  _151
REMARK   68  A    between atoms: _151  and  _152
REMARK   69  A    between atoms: _151  and  _154
REMARK   70  A    between atoms: _157  and  _159
REMARK   71  A    between atoms: _159  and  _160
REMARK   72  A    between atoms: _159  and  _162
REMARK   73  A    between atoms: _162  and  _163
REMARK   74  A    between atoms: _166  and  _168
REMARK   75  A    between atoms: _168  and  _169
REMARK   76  A    between atoms: _168  and  _171
REMARK   77  A    between atoms: _171  and  _172
REMARK   78  A    between atoms: _175  and  _177
REMARK   79  A    between atoms: _177  and  _178
REMARK   80  A    between atoms: _180  and  _182
REMARK   81  A    between atoms: _182  and  _183
REMARK   82  A    between atoms: _182  and  _185
REMARK   83  A    between atoms: _185  and  _186
REMARK   84  A    between atoms: _189  and  _191
REMARK   85  A    between atoms: _191  and  _192
REMARK   86  A    between atoms: _194  and  _196
REMARK   87  A    between atoms: _196  and  _197
REMARK   88  A    between atoms: _196  and  _199
REMARK   89  A    between atoms: _199  and  _200
REMARK   90  A    between atoms: _200  and  _201
REMARK   91  A    between atoms: _203  and  _205
REMARK   92  A    between atoms: _205  and  _206
REMARK   93  A    between atoms: _205  and  _208
REMARK   94  A    between atoms: _208  and  _209
REMARK   95  A    between atoms: _212  and  _214
REMARK   96  A    between atoms: _214  and  _215
REMARK   97  A    between atoms: _218  and  _220
REMARK   98  A    between atoms: _220  and  _221
REMARK   99  A    between atoms: _220  and  _223
REMARK  100  A    between atoms: _223  and  _224
REMARK  101  A    between atoms: _227  and  _229
REMARK  102  A    between atoms: _229  and  _230
REMARK  103  A    between atoms: _229  and  _232
REMARK  104  A    between atoms: _232  and  _233
REMARK  105  A    between atoms: _236  and  _238
REMARK  106  A    between atoms: _238  and  _239
REMARK  107  A    between atoms: _238  and  _241
REMARK  108  A    between atoms: _241  and  _242
REMARK  109  A    between atoms: _245  and  _247
REMARK  110  A    between atoms: _247  and  _248
REMARK  111  A    between atoms: _247  and  _250
REMARK  112  A    between atoms: _250  and  _251
REMARK  113  A    between atoms: _256  and  _258
REMARK  114  A    between atoms: _258  and  _259
REMARK  115  A    between atoms: _258  and  _261
REMARK  116  A    between atoms: _261  and  _262
REMARK  117  A    between atoms: _267  and  _269
REMARK  118  A    between atoms: _269  and  _270
REMARK  119  A    between atoms: _269  and  _272
REMARK  120  A    between atoms: _272  and  _273
REMARK  121  A    between atoms: _276  and  _278
REMARK  122  A    between atoms: _278  and  _279
REMARK  123  A    between atoms: _281  and  _283
REMARK  124  A    between atoms: _283  and  _284
REMARK  125  A    between atoms: _283  and  _286
REMARK  126  A    between atoms: _286  and  _287
REMARK  127  A    between atoms: _290  and  _292
REMARK  128  A    between atoms: _292  and  _293
REMARK  129  A    between atoms: _292  and  _295
REMARK  130  A    between atoms: _295  and  _296
REMARK  131  A    between atoms: _299  and  _301
REMARK  132  A    between atoms: _301  and  _302
REMARK  133  A    between atoms: _305  and  _307
REMARK  134  A    between atoms: _307  and  _308
REMARK  135  A    between atoms: _307  and  _310
REMARK  136  A    between atoms: _310  and  _311
REMARK  137  A    between atoms: _311  and  _312
REMARK  138  A    between atoms: _312  and  _313
REMARK  139  A    between atoms: _313  and  _314
REMARK  140  A    between atoms: _318  and  _320
REMARK  141  A    between atoms: _320  and  _321
REMARK  142  A    between atoms: _323  and  _325
REMARK  143  A    between atoms: _325  and  _326
REMARK  144  A    between atoms: _325  and  _328
REMARK  145  A    between atoms: _328  and  _329
REMARK  146  A    between atoms: _332  and  _334
REMARK  147  A    between atoms: _334  and  _335
REMARK  148  A    between atoms: _334  and  _337
REMARK  149  A    between atoms: _337  and  _338
REMARK  150  A    between atoms: _344  and  _346
REMARK  151  A    between atoms: _346  and  _347
REMARK  152  A    between atoms: _349  and  _351
REMARK  153  A    between atoms: _351  and  _352
REMARK  154  A    between atoms: _351  and  _354
REMARK  155  A    between atoms: _357  and  _359
REMARK  156  A    between atoms: _359  and  _360
REMARK  157  A    between atoms: _362  and  _364
REMARK  158  A    between atoms: _364  and  _365
REMARK  159  A    between atoms: _364  and  _367
REMARK  160  A    between atoms: _367  and  _368
REMARK  161  A    between atoms: _374  and  _376
REMARK  162  A    between atoms: _376  and  _377
REMARK  163  A    between atoms: _376  and  _379
REMARK  164  A    between atoms: _379  and  _380
REMARK  165  A    between atoms: _385  and  _386
REMARK  166  A    between atoms: _388  and  _390
REMARK  167  A    between atoms: _390  and  _391
REMARK  168  A    between atoms: _390  and  _393
REMARK  169  A    between atoms: _393  and  _394
REMARK  170  A    between atoms: _396  and  _398
REMARK  171  A    between atoms: _398  and  _399
REMARK  172  A    between atoms: _398  and  _401
REMARK  173  A    between atoms: _401  and  _402
REMARK  174  A    between atoms: _407  and  _408
REMARK  175  A    between atoms: _410  and  _412
REMARK  176  A    between atoms: _412  and  _413
REMARK  177  A    between atoms: _412  and  _415
REMARK  178  A    between atoms: _418  and  _420
REMARK  179  A    between atoms: _420  and  _421
REMARK  180  A    between atoms: _420  and  _423
REMARK  181  A    between atoms: _423  and  _424
REMARK  182  A    between atoms: _427  and  _429
REMARK  183  A    between atoms: _429  and  _430
REMARK  184  A    between atoms: _429  and  _432
REMARK  185  A    between atoms: _435  and  _437
REMARK  186  A    between atoms: _437  and  _438
REMARK  187  A    between atoms: _437  and  _440
REMARK  188  A    between atoms: _440  and  _441
REMARK  189  A    between atoms: _444  and  _446
REMARK  190  A    between atoms: _446  and  _447
REMARK  191  A    between atoms: _446  and  _449
REMARK  192  A    between atoms: _449  and  _450
REMARK  193  A    between atoms: _453  and  _455
REMARK  194  A    between atoms: _455  and  _456
REMARK  195  A    between atoms: _455  and  _458
REMARK  196  A    between atoms: _458  and  _459
REMARK  197  A    between atoms: _459  and  _460
REMARK  198  A    between atoms: _460  and  _461
REMARK  199  A    between atoms: _461  and  _462
REMARK  200  A    between atoms: _466  and  _468
REMARK  201  A    between atoms: _468  and  _469
REMARK  202  A    between atoms: _468  and  _471
REMARK  203  A    between atoms: _471  and  _472
REMARK  204  A    between atoms: _477  and  _479
REMARK  205  A    between atoms: _479  and  _480
REMARK  206  A    between atoms: _483  and  _485
REMARK  207  A    between atoms: _485  and  _486
REMARK  208  A    between atoms: _485  and  _488
REMARK  209  A    between atoms: _488  and  _489
REMARK  210  A    between atoms: _499  and  _501
REMARK  211  A    between atoms: _501  and  _502
REMARK  212  A    between atoms: _501  and  _504
REMARK  213  A    between atoms: _504  and  _505
REMARK  214  A    between atoms: _505  and  _506
REMARK  215  A    between atoms: _509  and  _511
REMARK  216  A    between atoms: _511  and  _512
REMARK  217  A    between atoms: _511  and  _514
REMARK  218  A    between atoms: _514  and  _515
REMARK  219  A    between atoms: _517  and  _519
REMARK  220  A    between atoms: _519  and  _520
REMARK  221  A    between atoms: _519  and  _522
REMARK  222  A    between atoms: _522  and  _523
REMARK  223  A    between atoms: _529  and  _531
REMARK  224  A    between atoms: _531  and  _532
REMARK  225  A    between atoms: _531  and  _534
REMARK  226  A    between atoms: _534  and  _535
REMARK  227  A    between atoms: _538  and  _540
REMARK  228  A    between atoms: _540  and  _541
REMARK  229  A    between atoms: _540  and  _543
REMARK  230  A    between atoms: _546  and  _548
REMARK  231  A    between atoms: _548  and  _549
REMARK  232  A    between atoms: _551  and  _553
REMARK  233  A    between atoms: _553  and  _554
REMARK  234  A    between atoms: _553  and  _556
REMARK  235  A    between atoms: _556  and  _557
REMARK  236  A    between atoms: _560  and  _562
REMARK  237  A    between atoms: _562  and  _563
REMARK  238  A    between atoms: _562  and  _565
REMARK  239  A    between atoms: _565  and  _566
REMARK  240  A    between atoms: _566  and  _567
REMARK  241  A    between atoms: _567  and  _568
REMARK  242  A    between atoms: _568  and  _569
REMARK  243  A    between atoms: _573  and  _575
REMARK  244  A    between atoms: _575  and  _576
REMARK  245  A    between atoms: _575  and  _578
REMARK                            x       y       z     vdW  Elec       q    Type
REMARK                         _______ _______ _______ _____ _____    ______ ____
ROOT
ATOM      1  O   HOH     1      10.595  32.840  20.146  0.00  0.00    +0.000 OA
ENDROOT
TORSDOF 0
REMARK  Name = ../refined-set-2016/2qg2/2qg2_pocket.pdb
REMARK  245 active torsions:
REMARK  status: ('A' for Active; 'I' for Inactive)
REMARK    1  A    between atoms: _1  and  _3
REMARK    2  A    between atoms: _3  and  _4
REMARK    3  A    between atoms: _3  and  _6
REMARK    4  A    between atoms: _6  and  _7
REMARK    5  A    between atoms: _13  and  _15
REMARK    6  A    between atoms: _15  and  _16
REMARK    7  A    between atoms: _15  and  _18
REMARK    8  A    between atoms: _18  and  _19
REMARK    9  A    between atoms: _22  and  _24
REMARK   10  A    between atoms: _24  and  _25
REMARK   11  A    between atoms: _24  and  _27
REMARK   12  A    between atoms: _27  and  _28
REMARK   13  A    between atoms: _31  and  _33
REMARK   14  A    between atoms: _33  and  _34
REMARK   15  A    between atoms: _33  and  _36
REMARK   16  A    between atoms: _36  and  _37
REMARK   17  A    between atoms: _37  and  _38
REMARK   18  A    between atoms: _41  and  _43
REMARK   19  A    between atoms: _43  and  _44
REMARK   20  A    between atoms: _43  and  _46
REMARK   21  A    between atoms: _46  and  _47
REMARK   22  A    between atoms: _50  and  _52
REMARK   23  A    between atoms: _52  and  _53
REMARK   24  A    between atoms: _52  and  _55
REMARK   25  A    between atoms: _55  and  _56
REMARK   26  A    between atoms: _59  and  _61
REMARK   27  A    between atoms: _61  and  _62
REMARK   28  A    between atoms: _61  and  _64
REMARK   29  A    between atoms: _64  and  _65
REMARK   30  A    between atoms: _67  and  _69
REMARK   31  A    between atoms: _69  and  _70
REMARK   32  A    between atoms: _69  and  _72
REMARK   33  A    between atoms: _72  and  _73
REMARK   34  A    between atoms: _78  and  _80
REMARK   35  A    between atoms: _80  and  _81
REMARK   36  A    between atoms: _80  and  _83
REMARK   37  A    between atoms: _83  and  _84
REMARK   38  A    between atoms: _86  and  _88
REMARK   39  A    between atoms: _88  and  _89
REMARK   40  A    between atoms: _88  and  _91
REMARK   41  A    between atoms: _91  and  _92
REMARK   42  A    between atoms: _94  and  _96
REMARK   43  A    between atoms: _96  and  _97
REMARK   44  A    between atoms: _96  and  _99
REMARK   45  A    between atoms: _99  and  _100
REMARK   46  A    between atoms: _103  and  _105
REMARK   47  A    between atoms: _105  and  _106
REMARK   48  A    between atoms: _109  and  _111
REMARK   49  A    between atoms: _111  and  _112
REMARK   50  A    between atoms: _111  and  _114
REMARK   51  A    between atoms: _114  and  _115
REMARK   52  A    between atoms: _118  and  _120
REMARK   53  A    between atoms: _120  and  _121
REMARK   54  A    between atoms: _120  and  _123
REMARK   55  A    between atoms: _123  and  _124
REMARK   56  A    between atoms: _124  and  _125
REMARK   57  A    between atoms: _125  and  _126
REMARK   58  A    between atoms: _126  and  _127
REMARK   59  A    between atoms: _131  and  _133
REMARK   60  A    between atoms: _133  and  _134
REMARK   61  A    between atoms: _133  and  _136
REMARK   62  A    between atoms: _136  and  _137
REMARK   63  A    between atoms: _140  and  _142
REMARK   64  A    between atoms: _142  and  _143
REMARK   65  A    between atoms: _142  and  _145
REMARK   66  A    between atoms: _145  and  _146
REMARK   67  A    between atoms: _149  and  _151
REMARK   68  A    between atoms: _151  and  _152
REMARK   69  A    between atoms: _151  and  _154
REMARK   70  A    between atoms: _157  and  _159
REMARK   71  A    between atoms: _159  and  _160
REMARK   72  A    between atoms: _159  and  _162
REMARK   73  A    between atoms: _162  and  _163
REMARK   74  A    between atoms: _166  and  _168
REMARK   75  A    between atoms: _168  and  _169
REMARK   76  A    between atoms: _168  and  _171
REMARK   77  A    between atoms: _171  and  _172
REMARK   78  A    between atoms: _175  and  _177
REMARK   79  A    between atoms: _177  and  _178
REMARK   80  A    between atoms: _180  and  _182
REMARK   81  A    between atoms: _182  and  _183
REMARK   82  A    between atoms: _182  and  _185
REMARK   83  A    between atoms: _185  and  _186
REMARK   84  A    between atoms: _189  and  _191
REMARK   85  A    between atoms: _191  and  _192
REMARK   86  A    between atoms: _194  and  _196
REMARK   87  A    between atoms: _196  and  _197
REMARK   88  A    between atoms: _196  and  _199
REMARK   89  A    between atoms: _199  and  _200
REMARK   90  A    between atoms: _200  and  _201
REMARK   91  A    between atoms: _203  and  _205
REMARK   92  A    between atoms: _205  and  _206
REMARK   93  A    between atoms: _205  and  _208
REMARK   94  A    between atoms: _208  and  _209
REMARK   95  A    between atoms: _212  and  _214
REMARK   96  A    between atoms: _214  and  _215
REMARK   97  A    between atoms: _218  and  _220
REMARK   98  A    between atoms: _220  and  _221
REMARK   99  A    between atoms: _220  and  _223
REMARK  100  A    between atoms: _223  and  _224
REMARK  101  A    between atoms: _227  and  _229
REMARK  102  A    between atoms: _229  and  _230
REMARK  103  A    between atoms: _229  and  _232
REMARK  104  A    between atoms: _232  and  _233
REMARK  105  A    between atoms: _236  and  _238
REMARK  106  A    between atoms: _238  and  _239
REMARK  107  A    between atoms: _238  and  _241
REMARK  108  A    between atoms: _241  and  _242
REMARK  109  A    between atoms: _245  and  _247
REMARK  110  A    between atoms: _247  and  _248
REMARK  111  A    between atoms: _247  and  _250
REMARK  112  A    between atoms: _250  and  _251
REMARK  113  A    between atoms: _256  and  _258
REMARK  114  A    between atoms: _258  and  _259
REMARK  115  A    between atoms: _258  and  _261
REMARK  116  A    between atoms: _261  and  _262
REMARK  117  A    between atoms: _267  and  _269
REMARK  118  A    between atoms: _269  and  _270
REMARK  119  A    between atoms: _269  and  _272
REMARK  120  A    between atoms: _272  and  _273
REMARK  121  A    between atoms: _276  and  _278
REMARK  122  A    between atoms: _278  and  _279
REMARK  123  A    between atoms: _281  and  _283
REMARK  124  A    between atoms: _283  and  _284
REMARK  125  A    between atoms: _283  and  _286
REMARK  126  A    between atoms: _286  and  _287
REMARK  127  A    between atoms: _290  and  _292
REMARK  128  A    between atoms: _292  and  _293
REMARK  129  A    between atoms: _292  and  _295
REMARK  130  A    between atoms: _295  and  _296
REMARK  131  A    between atoms: _299  and  _301
REMARK  132  A    between atoms: _301  and  _302
REMARK  133  A    between atoms: _305  and  _307
REMARK  134  A    between atoms: _307  and  _308
REMARK  135  A    between atoms: _307  and  _310
REMARK  136  A    between atoms: _310  and  _311
REMARK  137  A    between atoms: _311  and  _312
REMARK  138  A    between atoms: _312  and  _313
REMARK  139  A    between atoms: _313  and  _314
REMARK  140  A    between atoms: _318  and  _320
REMARK  141  A    between atoms: _320  and  _321
REMARK  142  A    between atoms: _323  and  _325
REMARK  143  A    between atoms: _325  and  _326
REMARK  144  A    between atoms: _325  and  _328
REMARK  145  A    between atoms: _328  and  _329
REMARK  146  A    between atoms: _332  and  _334
REMARK  147  A    between atoms: _334  and  _335
REMARK  148  A    between atoms: _334  and  _337
REMARK  149  A    between atoms: _337  and  _338
REMARK  150  A    between atoms: _344  and  _346
REMARK  151  A    between atoms: _346  and  _347
REMARK  152  A    between atoms: _349  and  _351
REMARK  153  A    between atoms: _351  and  _352
REMARK  154  A    between atoms: _351  and  _354
REMARK  155  A    between atoms: _357  and  _359
REMARK  156  A    between atoms: _359  and  _360
REMARK  157  A    between atoms: _362  and  _364
REMARK  158  A    between atoms: _364  and  _365
REMARK  159  A    between atoms: _364  and  _367
REMARK  160  A    between atoms: _367  and  _368
REMARK  161  A    between atoms: _374  and  _376
REMARK  162  A    between atoms: _376  and  _377
REMARK  163  A    between atoms: _376  and  _379
REMARK  164  A    between atoms: _379  and  _380
REMARK  165  A    between atoms: _385  and  _386
REMARK  166  A    between atoms: _388  and  _390
REMARK  167  A    between atoms: _390  and  _391
REMARK  168  A    between atoms: _390  and  _393
REMARK  169  A    between atoms: _393  and  _394
REMARK  170  A    between atoms: _396  and  _398
REMARK  171  A    between atoms: _398  and  _399
REMARK  172  A    between atoms: _398  and  _401
REMARK  173  A    between atoms: _401  and  _402
REMARK  174  A    between atoms: _407  and  _408
REMARK  175  A    between atoms: _410  and  _412
REMARK  176  A    between atoms: _412  and  _413
REMARK  177  A    between atoms: _412  and  _415
REMARK  178  A    between atoms: _418  and  _420
REMARK  179  A    between atoms: _420  and  _421
REMARK  180  A    between atoms: _420  and  _423
REMARK  181  A    between atoms: _423  and  _424
REMARK  182  A    between atoms: _427  and  _429
REMARK  183  A    between atoms: _429  and  _430
REMARK  184  A    between atoms: _429  and  _432
REMARK  185  A    between atoms: _435  and  _437
REMARK  186  A    between atoms: _437  and  _438
REMARK  187  A    between atoms: _437  and  _440
REMARK  188  A    between atoms: _440  and  _441
REMARK  189  A    between atoms: _444  and  _446
REMARK  190  A    between atoms: _446  and  _447
REMARK  191  A    between atoms: _446  and  _449
REMARK  192  A    between atoms: _449  and  _450
REMARK  193  A    between atoms: _453  and  _455
REMARK  194  A    between atoms: _455  and  _456
REMARK  195  A    between atoms: _455  and  _458
REMARK  196  A    between atoms: _458  and  _459
REMARK  197  A    between atoms: _459  and  _460
REMARK  198  A    between atoms: _460  and  _461
REMARK  199  A    between atoms: _461  and  _462
REMARK  200  A    between atoms: _466  and  _468
REMARK  201  A    between atoms: _468  and  _469
REMARK  202  A    between atoms: _468  and  _471
REMARK  203  A    between atoms: _471  and  _472
REMARK  204  A    between atoms: _477  and  _479
REMARK  205  A    between atoms: _479  and  _480
REMARK  206  A    between atoms: _483  and  _485
REMARK  207  A    between atoms: _485  and  _486
REMARK  208  A    between atoms: _485  and  _488
REMARK  209  A    between atoms: _488  and  _489
REMARK  210  A    between atoms: _499  and  _501
REMARK  211  A    between atoms: _501  and  _502
REMARK  212  A    between atoms: _501  and  _504
REMARK  213  A    between atoms: _504  and  _505
REMARK  214  A    between atoms: _505  and  _506
REMARK  215  A    between atoms: _509  and  _511
REMARK  216  A    between atoms: _511  and  _512
REMARK  217  A    between atoms: _511  and  _514
REMARK  218  A    between atoms: _514  and  _515
REMARK  219  A    between atoms: _517  and  _519
REMARK  220  A    between atoms: _519  and  _520
REMARK  221  A    between atoms: _519  and  _522
REMARK  222  A    between atoms: _522  and  _523
REMARK  223  A    between atoms: _529  and  _531
REMARK  224  A    between atoms: _531  and  _532
REMARK  225  A    between atoms: _531  and  _534
REMARK  226  A    between atoms: _534  and  _535
REMARK  227  A    between atoms: _538  and  _540
REMARK  228  A    between atoms: _540  and  _541
REMARK  229  A    between atoms: _540  and  _543
REMARK  230  A    between atoms: _546  and  _548
REMARK  231  A    between atoms: _548  and  _549
REMARK  232  A    between atoms: _551  and  _553
REMARK  233  A    between atoms: _553  and  _554
REMARK  234  A    between atoms: _553  and  _556
REMARK  235  A    between atoms: _556  and  _557
REMARK  236  A    between atoms: _560  and  _562
REMARK  237  A    between atoms: _562  and  _563
REMARK  238  A    between atoms: _562  and  _565
REMARK  239  A    between atoms: _565  and  _566
REMARK  240  A    between atoms: _566  and  _567
REMARK  241  A    between atoms: _567  and  _568
REMARK  242  A    between atoms: _568  and  _569
REMARK  243  A    between atoms: _573  and  _575
REMARK  244  A    between atoms: _575  and  _576
REMARK  245  A    between atoms: _575  and  _578
REMARK                            x       y       z     vdW  Elec       q    Type
REMARK                         _______ _______ _______ _____ _____    ______ ____
ROOT
ATOM      1  O   HOH     1       0.731  42.525  23.384  0.00  0.00    +0.000 OA
ENDROOT
TORSDOF 0
REMARK  Name = ../refined-set-2016/2qg2/2qg2_pocket.pdb
REMARK  245 active torsions:
REMARK  status: ('A' for Active; 'I' for Inactive)
REMARK    1  A    between atoms: _1  and  _3
REMARK    2  A    between atoms: _3  and  _4
REMARK    3  A    between atoms: _3  and  _6
REMARK    4  A    between atoms: _6  and  _7
REMARK    5  A    between atoms: _13  and  _15
REMARK    6  A    between atoms: _15  and  _16
REMARK    7  A    between atoms: _15  and  _18
REMARK    8  A    between atoms: _18  and  _19
REMARK    9  A    between atoms: _22  and  _24
REMARK   10  A    between atoms: _24  and  _25
REMARK   11  A    between atoms: _24  and  _27
REMARK   12  A    between atoms: _27  and  _28
REMARK   13  A    between atoms: _31  and  _33
REMARK   14  A    between atoms: _33  and  _34
REMARK   15  A    between atoms: _33  and  _36
REMARK   16  A    between atoms: _36  and  _37
REMARK   17  A    between atoms: _37  and  _38
REMARK   18  A    between atoms: _41  and  _43
REMARK   19  A    between atoms: _43  and  _44
REMARK   20  A    between atoms: _43  and  _46
REMARK   21  A    between atoms: _46  and  _47
REMARK   22  A    between atoms: _50  and  _52
REMARK   23  A    between atoms: _52  and  _53
REMARK   24  A    between atoms: _52  and  _55
REMARK   25  A    between atoms: _55  and  _56
REMARK   26  A    between atoms: _59  and  _61
REMARK   27  A    between atoms: _61  and  _62
REMARK   28  A    between atoms: _61  and  _64
REMARK   29  A    between atoms: _64  and  _65
REMARK   30  A    between atoms: _67  and  _69
REMARK   31  A    between atoms: _69  and  _70
REMARK   32  A    between atoms: _69  and  _72
REMARK   33  A    between atoms: _72  and  _73
REMARK   34  A    between atoms: _78  and  _80
REMARK   35  A    between atoms: _80  and  _81
REMARK   36  A    between atoms: _80  and  _83
REMARK   37  A    between atoms: _83  and  _84
REMARK   38  A    between atoms: _86  and  _88
REMARK   39  A    between atoms: _88  and  _89
REMARK   40  A    between atoms: _88  and  _91
REMARK   41  A    between atoms: _91  and  _92
REMARK   42  A    between atoms: _94  and  _96
REMARK   43  A    between atoms: _96  and  _97
REMARK   44  A    between atoms: _96  and  _99
REMARK   45  A    between atoms: _99  and  _100
REMARK   46  A    between atoms: _103  and  _105
REMARK   47  A    between atoms: _105  and  _106
REMARK   48  A    between atoms: _109  and  _111
REMARK   49  A    between atoms: _111  and  _112
REMARK   50  A    between atoms: _111  and  _114
REMARK   51  A    between atoms: _114  and  _115
REMARK   52  A    between atoms: _118  and  _120
REMARK   53  A    between atoms: _120  and  _121
REMARK   54  A    between atoms: _120  and  _123
REMARK   55  A    between atoms: _123  and  _124
REMARK   56  A    between atoms: _124  and  _125
REMARK   57  A    between atoms: _125  and  _126
REMARK   58  A    between atoms: _126  and  _127
REMARK   59  A    between atoms: _131  and  _133
REMARK   60  A    between atoms: _133  and  _134
REMARK   61  A    between atoms: _133  and  _136
REMARK   62  A    between atoms: _136  and  _137
REMARK   63  A    between atoms: _140  and  _142
REMARK   64  A    between atoms: _142  and  _143
REMARK   65  A    between atoms: _142  and  _145
REMARK   66  A    between atoms: _145  and  _146
REMARK   67  A    between atoms: _149  and  _151
REMARK   68  A    between atoms: _151  and  _152
REMARK   69  A    between atoms: _151  and  _154
REMARK   70  A    between atoms: _157  and  _159
REMARK   71  A    between atoms: _159  and  _160
REMARK   72  A    between atoms: _159  and  _162
REMARK   73  A    between atoms: _162  and  _163
REMARK   74  A    between atoms: _166  and  _168
REMARK   75  A    between atoms: _168  and  _169
REMARK   76  A    between atoms: _168  and  _171
REMARK   77  A    between atoms: _171  and  _172
REMARK   78  A    between atoms: _175  and  _177
REMARK   79  A    between atoms: _177  and  _178
REMARK   80  A    between atoms: _180  and  _182
REMARK   81  A    between atoms: _182  and  _183
REMARK   82  A    between atoms: _182  and  _185
REMARK   83  A    between atoms: _185  and  _186
REMARK   84  A    between atoms: _189  and  _191
REMARK   85  A    between atoms: _191  and  _192
REMARK   86  A    between atoms: _194  and  _196
REMARK   87  A    between atoms: _196  and  _197
REMARK   88  A    between atoms: _196  and  _199
REMARK   89  A    between atoms: _199  and  _200
REMARK   90  A    between atoms: _200  and  _201
REMARK   91  A    between atoms: _203  and  _205
REMARK   92  A    between atoms: _205  and  _206
REMARK   93  A    between atoms: _205  and  _208
REMARK   94  A    between atoms: _208  and  _209
REMARK   95  A    between atoms: _212  and  _214
REMARK   96  A    between atoms: _214  and  _215
REMARK   97  A    between atoms: _218  and  _220
REMARK   98  A    between atoms: _220  and  _221
REMARK   99  A    between atoms: _220  and  _223
REMARK  100  A    between atoms: _223  and  _224
REMARK  101  A    between atoms: _227  and  _229
REMARK  102  A    between atoms: _229  and  _230
REMARK  103  A    between atoms: _229  and  _232
REMARK  104  A    between atoms: _232  and  _233
REMARK  105  A    between atoms: _236  and  _238
REMARK  106  A    between atoms: _238  and  _239
REMARK  107  A    between atoms: _238  and  _241
REMARK  108  A    between atoms: _241  and  _242
REMARK  109  A    between atoms: _245  and  _247
REMARK  110  A    between atoms: _247  and  _248
REMARK  111  A    between atoms: _247  and  _250
REMARK  112  A    between atoms: _250  and  _251
REMARK  113  A    between atoms: _256  and  _258
REMARK  114  A    between atoms: _258  and  _259
REMARK  115  A    between atoms: _258  and  _261
REMARK  116  A    between atoms: _261  and  _262
REMARK  117  A    between atoms: _267  and  _269
REMARK  118  A    between atoms: _269  and  _270
REMARK  119  A    between atoms: _269  and  _272
REMARK  120  A    between atoms: _272  and  _273
REMARK  121  A    between atoms: _276  and  _278
REMARK  122  A    between atoms: _278  and  _279
REMARK  123  A    between atoms: _281  and  _283
REMARK  124  A    between atoms: _283  and  _284
REMARK  125  A    between atoms: _283  and  _286
REMARK  126  A    between atoms: _286  and  _287
REMARK  127  A    between atoms: _290  and  _292
REMARK  128  A    between atoms: _292  and  _293
REMARK  129  A    between atoms: _292  and  _295
REMARK  130  A    between atoms: _295  and  _296
REMARK  131  A    between atoms: _299  and  _301
REMARK  132  A    between atoms: _301  and  _302
REMARK  133  A    between atoms: _305  and  _307
REMARK  134  A    between atoms: _307  and  _308
REMARK  135  A    between atoms: _307  and  _310
REMARK  136  A    between atoms: _310  and  _311
REMARK  137  A    between atoms: _311  and  _312
REMARK  138  A    between atoms: _312  and  _313
REMARK  139  A    between atoms: _313  and  _314
REMARK  140  A    between atoms: _318  and  _320
REMARK  141  A    between atoms: _320  and  _321
REMARK  142  A    between atoms: _323  and  _325
REMARK  143  A    between atoms: _325  and  _326
REMARK  144  A    between atoms: _325  and  _328
REMARK  145  A    between atoms: _328  and  _329
REMARK  146  A    between atoms: _332  and  _334
REMARK  147  A    between atoms: _334  and  _335
REMARK  148  A    between atoms: _334  and  _337
REMARK  149  A    between atoms: _337  and  _338
REMARK  150  A    between atoms: _344  and  _346
REMARK  151  A    between atoms: _346  and  _347
REMARK  152  A    between atoms: _349  and  _351
REMARK  153  A    between atoms: _351  and  _352
REMARK  154  A    between atoms: _351  and  _354
REMARK  155  A    between atoms: _357  and  _359
REMARK  156  A    between atoms: _359  and  _360
REMARK  157  A    between atoms: _362  and  _364
REMARK  158  A    between atoms: _364  and  _365
REMARK  159  A    between atoms: _364  and  _367
REMARK  160  A    between atoms: _367  and  _368
REMARK  161  A    between atoms: _374  and  _376
REMARK  162  A    between atoms: _376  and  _377
REMARK  163  A    between atoms: _376  and  _379
REMARK  164  A    between atoms: _379  and  _380
REMARK  165  A    between atoms: _385  and  _386
REMARK  166  A    between atoms: _388  and  _390
REMARK  167  A    between atoms: _390  and  _391
REMARK  168  A    between atoms: _390  and  _393
REMARK  169  A    between atoms: _393  and  _394
REMARK  170  A    between atoms: _396  and  _398
REMARK  171  A    between atoms: _398  and  _399
REMARK  172  A    between atoms: _398  and  _401
REMARK  173  A    between atoms: _401  and  _402
REMARK  174  A    between atoms: _407  and  _408
REMARK  175  A    between atoms: _410  and  _412
REMARK  176  A    between atoms: _412  and  _413
REMARK  177  A    between atoms: _412  and  _415
REMARK  178  A    between atoms: _418  and  _420
REMARK  179  A    between atoms: _420  and  _421
REMARK  180  A    between atoms: _420  and  _423
REMARK  181  A    between atoms: _423  and  _424
REMARK  182  A    between atoms: _427  and  _429
REMARK  183  A    between atoms: _429  and  _430
REMARK  184  A    between atoms: _429  and  _432
REMARK  185  A    between atoms: _435  and  _437
REMARK  186  A    between atoms: _437  and  _438
REMARK  187  A    between atoms: _437  and  _440
REMARK  188  A    between atoms: _440  and  _441
REMARK  189  A    between atoms: _444  and  _446
REMARK  190  A    between atoms: _446  and  _447
REMARK  191  A    between atoms: _446  and  _449
REMARK  192  A    between atoms: _449  and  _450
REMARK  193  A    between atoms: _453  and  _455
REMARK  194  A    between atoms: _455  and  _456
REMARK  195  A    between atoms: _455  and  _458
REMARK  196  A    between atoms: _458  and  _459
REMARK  197  A    between atoms: _459  and  _460
REMARK  198  A    between atoms: _460  and  _461
REMARK  199  A    between atoms: _461  and  _462
REMARK  200  A    between atoms: _466  and  _468
REMARK  201  A    between atoms: _468  and  _469
REMARK  202  A    between atoms: _468  and  _471
REMARK  203  A    between atoms: _471  and  _472
REMARK  204  A    between atoms: _477  and  _479
REMARK  205  A    between atoms: _479  and  _480
REMARK  206  A    between atoms: _483  and  _485
REMARK  207  A    between atoms: _485  and  _486
REMARK  208  A    between atoms: _485  and  _488
REMARK  209  A    between atoms: _488  and  _489
REMARK  210  A    between atoms: _499  and  _501
REMARK  211  A    between atoms: _501  and  _502
REMARK  212  A    between atoms: _501  and  _504
REMARK  213  A    between atoms: _504  and  _505
REMARK  214  A    between atoms: _505  and  _506
REMARK  215  A    between atoms: _509  and  _511
REMARK  216  A    between atoms: _511  and  _512
REMARK  217  A    between atoms: _511  and  _514
REMARK  218  A    between atoms: _514  and  _515
REMARK  219  A    between atoms: _517  and  _519
REMARK  220  A    between atoms: _519  and  _520
REMARK  221  A    between atoms: _519  and  _522
REMARK  222  A    between atoms: _522  and  _523
REMARK  223  A    between atoms: _529  and  _531
REMARK  224  A    between atoms: _531  and  _532
REMARK  225  A    between atoms: _531  and  _534
REMARK  226  A    between atoms: _534  and  _535
REMARK  227  A    between atoms: _538  and  _540
REMARK  228  A    between atoms: _540  and  _541
REMARK  229  A    between atoms: _540  and  _543
REMARK  230  A    between atoms: _546  and  _548
REMARK  231  A    between atoms: _548  and  _549
REMARK  232  A    between atoms: _551  and  _553
REMARK  233  A    between atoms: _553  and  _554
REMARK  234  A    between atoms: _553  and  _556
REMARK  235  A    between atoms: _556  and  _557
REMARK  236  A    between atoms: _560  and  _562
REMARK  237  A    between atoms: _562  and  _563
REMARK  238  A    between atoms: _562  and  _565
REMARK  239  A    between atoms: _565  and  _566
REMARK  240  A    between atoms: _566  and  _567
REMARK  241  A    between atoms: _567  and  _568
REMARK  242  A    between atoms: _568  and  _569
REMARK  243  A    between atoms: _573  and  _575
REMARK  244  A    between atoms: _575  and  _576
REMARK  245  A    between atoms: _575  and  _578
REMARK                            x       y       z     vdW  Elec       q    Type
REMARK                         _______ _______ _______ _____ _____    ______ ____
ROOT
ATOM      1  O   HOH     1       1.389  39.221  20.309  0.00  0.00    +0.000 OA
ENDROOT
TORSDOF 0
REMARK  Name = ../refined-set-2016/2qg2/2qg2_pocket.pdb
REMARK  245 active torsions:
REMARK  status: ('A' for Active; 'I' for Inactive)
REMARK    1  A    between atoms: _1  and  _3
REMARK    2  A    between atoms: _3  and  _4
REMARK    3  A    between atoms: _3  and  _6
REMARK    4  A    between atoms: _6  and  _7
REMARK    5  A    between atoms: _13  and  _15
REMARK    6  A    between atoms: _15  and  _16
REMARK    7  A    between atoms: _15  and  _18
REMARK    8  A    between atoms: _18  and  _19
REMARK    9  A    between atoms: _22  and  _24
REMARK   10  A    between atoms: _24  and  _25
REMARK   11  A    between atoms: _24  and  _27
REMARK   12  A    between atoms: _27  and  _28
REMARK   13  A    between atoms: _31  and  _33
REMARK   14  A    between atoms: _33  and  _34
REMARK   15  A    between atoms: _33  and  _36
REMARK   16  A    between atoms: _36  and  _37
REMARK   17  A    between atoms: _37  and  _38
REMARK   18  A    between atoms: _41  and  _43
REMARK   19  A    between atoms: _43  and  _44
REMARK   20  A    between atoms: _43  and  _46
REMARK   21  A    between atoms: _46  and  _47
REMARK   22  A    between atoms: _50  and  _52
REMARK   23  A    between atoms: _52  and  _53
REMARK   24  A    between atoms: _52  and  _55
REMARK   25  A    between atoms: _55  and  _56
REMARK   26  A    between atoms: _59  and  _61
REMARK   27  A    between atoms: _61  and  _62
REMARK   28  A    between atoms: _61  and  _64
REMARK   29  A    between atoms: _64  and  _65
REMARK   30  A    between atoms: _67  and  _69
REMARK   31  A    between atoms: _69  and  _70
REMARK   32  A    between atoms: _69  and  _72
REMARK   33  A    between atoms: _72  and  _73
REMARK   34  A    between atoms: _78  and  _80
REMARK   35  A    between atoms: _80  and  _81
REMARK   36  A    between atoms: _80  and  _83
REMARK   37  A    between atoms: _83  and  _84
REMARK   38  A    between atoms: _86  and  _88
REMARK   39  A    between atoms: _88  and  _89
REMARK   40  A    between atoms: _88  and  _91
REMARK   41  A    between atoms: _91  and  _92
REMARK   42  A    between atoms: _94  and  _96
REMARK   43  A    between atoms: _96  and  _97
REMARK   44  A    between atoms: _96  and  _99
REMARK   45  A    between atoms: _99  and  _100
REMARK   46  A    between atoms: _103  and  _105
REMARK   47  A    between atoms: _105  and  _106
REMARK   48  A    between atoms: _109  and  _111
REMARK   49  A    between atoms: _111  and  _112
REMARK   50  A    between atoms: _111  and  _114
REMARK   51  A    between atoms: _114  and  _115
REMARK   52  A    between atoms: _118  and  _120
REMARK   53  A    between atoms: _120  and  _121
REMARK   54  A    between atoms: _120  and  _123
REMARK   55  A    between atoms: _123  and  _124
REMARK   56  A    between atoms: _124  and  _125
REMARK   57  A    between atoms: _125  and  _126
REMARK   58  A    between atoms: _126  and  _127
REMARK   59  A    between atoms: _131  and  _133
REMARK   60  A    between atoms: _133  and  _134
REMARK   61  A    between atoms: _133  and  _136
REMARK   62  A    between atoms: _136  and  _137
REMARK   63  A    between atoms: _140  and  _142
REMARK   64  A    between atoms: _142  and  _143
REMARK   65  A    between atoms: _142  and  _145
REMARK   66  A    between atoms: _145  and  _146
REMARK   67  A    between atoms: _149  and  _151
REMARK   68  A    between atoms: _151  and  _152
REMARK   69  A    between atoms: _151  and  _154
REMARK   70  A    between atoms: _157  and  _159
REMARK   71  A    between atoms: _159  and  _160
REMARK   72  A    between atoms: _159  and  _162
REMARK   73  A    between atoms: _162  and  _163
REMARK   74  A    between atoms: _166  and  _168
REMARK   75  A    between atoms: _168  and  _169
REMARK   76  A    between atoms: _168  and  _171
REMARK   77  A    between atoms: _171  and  _172
REMARK   78  A    between atoms: _175  and  _177
REMARK   79  A    between atoms: _177  and  _178
REMARK   80  A    between atoms: _180  and  _182
REMARK   81  A    between atoms: _182  and  _183
REMARK   82  A    between atoms: _182  and  _185
REMARK   83  A    between atoms: _185  and  _186
REMARK   84  A    between atoms: _189  and  _191
REMARK   85  A    between atoms: _191  and  _192
REMARK   86  A    between atoms: _194  and  _196
REMARK   87  A    between atoms: _196  and  _197
REMARK   88  A    between atoms: _196  and  _199
REMARK   89  A    between atoms: _199  and  _200
REMARK   90  A    between atoms: _200  and  _201
REMARK   91  A    between atoms: _203  and  _205
REMARK   92  A    between atoms: _205  and  _206
REMARK   93  A    between atoms: _205  and  _208
REMARK   94  A    between atoms: _208  and  _209
REMARK   95  A    between atoms: _212  and  _214
REMARK   96  A    between atoms: _214  and  _215
REMARK   97  A    between atoms: _218  and  _220
REMARK   98  A    between atoms: _220  and  _221
REMARK   99  A    between atoms: _220  and  _223
REMARK  100  A    between atoms: _223  and  _224
REMARK  101  A    between atoms: _227  and  _229
REMARK  102  A    between atoms: _229  and  _230
REMARK  103  A    between atoms: _229  and  _232
REMARK  104  A    between atoms: _232  and  _233
REMARK  105  A    between atoms: _236  and  _238
REMARK  106  A    between atoms: _238  and  _239
REMARK  107  A    between atoms: _238  and  _241
REMARK  108  A    between atoms: _241  and  _242
REMARK  109  A    between atoms: _245  and  _247
REMARK  110  A    between atoms: _247  and  _248
REMARK  111  A    between atoms: _247  and  _250
REMARK  112  A    between atoms: _250  and  _251
REMARK  113  A    between atoms: _256  and  _258
REMARK  114  A    between atoms: _258  and  _259
REMARK  115  A    between atoms: _258  and  _261
REMARK  116  A    between atoms: _261  and  _262
REMARK  117  A    between atoms: _267  and  _269
REMARK  118  A    between atoms: _269  and  _270
REMARK  119  A    between atoms: _269  and  _272
REMARK  120  A    between atoms: _272  and  _273
REMARK  121  A    between atoms: _276  and  _278
REMARK  122  A    between atoms: _278  and  _279
REMARK  123  A    between atoms: _281  and  _283
REMARK  124  A    between atoms: _283  and  _284
REMARK  125  A    between atoms: _283  and  _286
REMARK  126  A    between atoms: _286  and  _287
REMARK  127  A    between atoms: _290  and  _292
REMARK  128  A    between atoms: _292  and  _293
REMARK  129  A    between atoms: _292  and  _295
REMARK  130  A    between atoms: _295  and  _296
REMARK  131  A    between atoms: _299  and  _301
REMARK  132  A    between atoms: _301  and  _302
REMARK  133  A    between atoms: _305  and  _307
REMARK  134  A    between atoms: _307  and  _308
REMARK  135  A    between atoms: _307  and  _310
REMARK  136  A    between atoms: _310  and  _311
REMARK  137  A    between atoms: _311  and  _312
REMARK  138  A    between atoms: _312  and  _313
REMARK  139  A    between atoms: _313  and  _314
REMARK  140  A    between atoms: _318  and  _320
REMARK  141  A    between atoms: _320  and  _321
REMARK  142  A    between atoms: _323  and  _325
REMARK  143  A    between atoms: _325  and  _326
REMARK  144  A    between atoms: _325  and  _328
REMARK  145  A    between atoms: _328  and  _329
REMARK  146  A    between atoms: _332  and  _334
REMARK  147  A    between atoms: _334  and  _335
REMARK  148  A    between atoms: _334  and  _337
REMARK  149  A    between atoms: _337  and  _338
REMARK  150  A    between atoms: _344  and  _346
REMARK  151  A    between atoms: _346  and  _347
REMARK  152  A    between atoms: _349  and  _351
REMARK  153  A    between atoms: _351  and  _352
REMARK  154  A    between atoms: _351  and  _354
REMARK  155  A    between atoms: _357  and  _359
REMARK  156  A    between atoms: _359  and  _360
REMARK  157  A    between atoms: _362  and  _364
REMARK  158  A    between atoms: _364  and  _365
REMARK  159  A    between atoms: _364  and  _367
REMARK  160  A    between atoms: _367  and  _368
REMARK  161  A    between atoms: _374  and  _376
REMARK  162  A    between atoms: _376  and  _377
REMARK  163  A    between atoms: _376  and  _379
REMARK  164  A    between atoms: _379  and  _380
REMARK  165  A    between atoms: _385  and  _386
REMARK  166  A    between atoms: _388  and  _390
REMARK  167  A    between atoms: _390  and  _391
REMARK  168  A    between atoms: _390  and  _393
REMARK  169  A    between atoms: _393  and  _394
REMARK  170  A    between atoms: _396  and  _398
REMARK  171  A    between atoms: _398  and  _399
REMARK  172  A    between atoms: _398  and  _401
REMARK  173  A    between atoms: _401  and  _402
REMARK  174  A    between atoms: _407  and  _408
REMARK  175  A    between atoms: _410  and  _412
REMARK  176  A    between atoms: _412  and  _413
REMARK  177  A    between atoms: _412  and  _415
REMARK  178  A    between atoms: _418  and  _420
REMARK  179  A    between atoms: _420  and  _421
REMARK  180  A    between atoms: _420  and  _423
REMARK  181  A    between atoms: _423  and  _424
REMARK  182  A    between atoms: _427  and  _429
REMARK  183  A    between atoms: _429  and  _430
REMARK  184  A    between atoms: _429  and  _432
REMARK  185  A    between atoms: _435  and  _437
REMARK  186  A    between atoms: _437  and  _438
REMARK  187  A    between atoms: _437  and  _440
REMARK  188  A    between atoms: _440  and  _441
REMARK  189  A    between atoms: _444  and  _446
REMARK  190  A    between atoms: _446  and  _447
REMARK  191  A    between atoms: _446  and  _449
REMARK  192  A    between atoms: _449  and  _450
REMARK  193  A    between atoms: _453  and  _455
REMARK  194  A    between atoms: _455  and  _456
REMARK  195  A    between atoms: _455  and  _458
REMARK  196  A    between atoms: _458  and  _459
REMARK  197  A    between atoms: _459  and  _460
REMARK  198  A    between atoms: _460  and  _461
REMARK  199  A    between atoms: _461  and  _462
REMARK  200  A    between atoms: _466  and  _468
REMARK  201  A    between atoms: _468  and  _469
REMARK  202  A    between atoms: _468  and  _471
REMARK  203  A    between atoms: _471  and  _472
REMARK  204  A    between atoms: _477  and  _479
REMARK  205  A    between atoms: _479  and  _480
REMARK  206  A    between atoms: _483  and  _485
REMARK  207  A    between atoms: _485  and  _486
REMARK  208  A    between atoms: _485  and  _488
REMARK  209  A    between atoms: _488  and  _489
REMARK  210  A    between atoms: _499  and  _501
REMARK  211  A    between atoms: _501  and  _502
REMARK  212  A    between atoms: _501  and  _504
REMARK  213  A    between atoms: _504  and  _505
REMARK  214  A    between atoms: _505  and  _506
REMARK  215  A    between atoms: _509  and  _511
REMARK  216  A    between atoms: _511  and  _512
REMARK  217  A    between atoms: _511  and  _514
REMARK  218  A    between atoms: _514  and  _515
REMARK  219  A    between atoms: _517  and  _519
REMARK  220  A    between atoms: _519  and  _520
REMARK  221  A    between atoms: _519  and  _522
REMARK  222  A    between atoms: _522  and  _523
REMARK  223  A    between atoms: _529  and  _531
REMARK  224  A    between atoms: _531  and  _532
REMARK  225  A    between atoms: _531  and  _534
REMARK  226  A    between atoms: _534  and  _535
REMARK  227  A    between atoms: _538  and  _540
REMARK  228  A    between atoms: _540  and  _541
REMARK  229  A    between atoms: _540  and  _543
REMARK  230  A    between atoms: _546  and  _548
REMARK  231  A    between atoms: _548  and  _549
REMARK  232  A    between atoms: _551  and  _553
REMARK  233  A    between atoms: _553  and  _554
REMARK  234  A    between atoms: _553  and  _556
REMARK  235  A    between atoms: _556  and  _557
REMARK  236  A    between atoms: _560  and  _562
REMARK  237  A    between atoms: _562  and  _563
REMARK  238  A    between atoms: _562  and  _565
REMARK  239  A    between atoms: _565  and  _566
REMARK  240  A    between atoms: _566  and  _567
REMARK  241  A    between atoms: _567  and  _568
REMARK  242  A    between atoms: _568  and  _569
REMARK  243  A    between atoms: _573  and  _575
REMARK  244  A    between atoms: _575  and  _576
REMARK  245  A    between atoms: _575  and  _578
REMARK                            x       y       z     vdW  Elec       q    Type
REMARK                         _______ _______ _______ _____ _____    ______ ____
ROOT
ATOM      1  O   HOH     1       3.234  38.805  23.506  0.00  0.00    +0.000 OA
ENDROOT
TORSDOF 0
REMARK  Name = ../refined-set-2016/2qg2/2qg2_pocket.pdb
REMARK  245 active torsions:
REMARK  status: ('A' for Active; 'I' for Inactive)
REMARK    1  A    between atoms: _1  and  _3
REMARK    2  A    between atoms: _3  and  _4
REMARK    3  A    between atoms: _3  and  _6
REMARK    4  A    between atoms: _6  and  _7
REMARK    5  A    between atoms: _13  and  _15
REMARK    6  A    between atoms: _15  and  _16
REMARK    7  A    between atoms: _15  and  _18
REMARK    8  A    between atoms: _18  and  _19
REMARK    9  A    between atoms: _22  and  _24
REMARK   10  A    between atoms: _24  and  _25
REMARK   11  A    between atoms: _24  and  _27
REMARK   12  A    between atoms: _27  and  _28
REMARK   13  A    between atoms: _31  and  _33
REMARK   14  A    between atoms: _33  and  _34
REMARK   15  A    between atoms: _33  and  _36
REMARK   16  A    between atoms: _36  and  _37
REMARK   17  A    between atoms: _37  and  _38
REMARK   18  A    between atoms: _41  and  _43
REMARK   19  A    between atoms: _43  and  _44
REMARK   20  A    between atoms: _43  and  _46
REMARK   21  A    between atoms: _46  and  _47
REMARK   22  A    between atoms: _50  and  _52
REMARK   23  A    between atoms: _52  and  _53
REMARK   24  A    between atoms: _52  and  _55
REMARK   25  A    between atoms: _55  and  _56
REMARK   26  A    between atoms: _59  and  _61
REMARK   27  A    between atoms: _61  and  _62
REMARK   28  A    between atoms: _61  and  _64
REMARK   29  A    between atoms: _64  and  _65
REMARK   30  A    between atoms: _67  and  _69
REMARK   31  A    between atoms: _69  and  _70
REMARK   32  A    between atoms: _69  and  _72
REMARK   33  A    between atoms: _72  and  _73
REMARK   34  A    between atoms: _78  and  _80
REMARK   35  A    between atoms: _80  and  _81
REMARK   36  A    between atoms: _80  and  _83
REMARK   37  A    between atoms: _83  and  _84
REMARK   38  A    between atoms: _86  and  _88
REMARK   39  A    between atoms: _88  and  _89
REMARK   40  A    between atoms: _88  and  _91
REMARK   41  A    between atoms: _91  and  _92
REMARK   42  A    between atoms: _94  and  _96
REMARK   43  A    between atoms: _96  and  _97
REMARK   44  A    between atoms: _96  and  _99
REMARK   45  A    between atoms: _99  and  _100
REMARK   46  A    between atoms: _103  and  _105
REMARK   47  A    between atoms: _105  and  _106
REMARK   48  A    between atoms: _109  and  _111
REMARK   49  A    between atoms: _111  and  _112
REMARK   50  A    between atoms: _111  and  _114
REMARK   51  A    between atoms: _114  and  _115
REMARK   52  A    between atoms: _118  and  _120
REMARK   53  A    between atoms: _120  and  _121
REMARK   54  A    between atoms: _120  and  _123
REMARK   55  A    between atoms: _123  and  _124
REMARK   56  A    between atoms: _124  and  _125
REMARK   57  A    between atoms: _125  and  _126
REMARK   58  A    between atoms: _126  and  _127
REMARK   59  A    between atoms: _131  and  _133
REMARK   60  A    between atoms: _133  and  _134
REMARK   61  A    between atoms: _133  and  _136
REMARK   62  A    between atoms: _136  and  _137
REMARK   63  A    between atoms: _140  and  _142
REMARK   64  A    between atoms: _142  and  _143
REMARK   65  A    between atoms: _142  and  _145
REMARK   66  A    between atoms: _145  and  _146
REMARK   67  A    between atoms: _149  and  _151
REMARK   68  A    between atoms: _151  and  _152
REMARK   69  A    between atoms: _151  and  _154
REMARK   70  A    between atoms: _157  and  _159
REMARK   71  A    between atoms: _159  and  _160
REMARK   72  A    between atoms: _159  and  _162
REMARK   73  A    between atoms: _162  and  _163
REMARK   74  A    between atoms: _166  and  _168
REMARK   75  A    between atoms: _168  and  _169
REMARK   76  A    between atoms: _168  and  _171
REMARK   77  A    between atoms: _171  and  _172
REMARK   78  A    between atoms: _175  and  _177
REMARK   79  A    between atoms: _177  and  _178
REMARK   80  A    between atoms: _180  and  _182
REMARK   81  A    between atoms: _182  and  _183
REMARK   82  A    between atoms: _182  and  _185
REMARK   83  A    between atoms: _185  and  _186
REMARK   84  A    between atoms: _189  and  _191
REMARK   85  A    between atoms: _191  and  _192
REMARK   86  A    between atoms: _194  and  _196
REMARK   87  A    between atoms: _196  and  _197
REMARK   88  A    between atoms: _196  and  _199
REMARK   89  A    between atoms: _199  and  _200
REMARK   90  A    between atoms: _200  and  _201
REMARK   91  A    between atoms: _203  and  _205
REMARK   92  A    between atoms: _205  and  _206
REMARK   93  A    between atoms: _205  and  _208
REMARK   94  A    between atoms: _208  and  _209
REMARK   95  A    between atoms: _212  and  _214
REMARK   96  A    between atoms: _214  and  _215
REMARK   97  A    between atoms: _218  and  _220
REMARK   98  A    between atoms: _220  and  _221
REMARK   99  A    between atoms: _220  and  _223
REMARK  100  A    between atoms: _223  and  _224
REMARK  101  A    between atoms: _227  and  _229
REMARK  102  A    between atoms: _229  and  _230
REMARK  103  A    between atoms: _229  and  _232
REMARK  104  A    between atoms: _232  and  _233
REMARK  105  A    between atoms: _236  and  _238
REMARK  106  A    between atoms: _238  and  _239
REMARK  107  A    between atoms: _238  and  _241
REMARK  108  A    between atoms: _241  and  _242
REMARK  109  A    between atoms: _245  and  _247
REMARK  110  A    between atoms: _247  and  _248
REMARK  111  A    between atoms: _247  and  _250
REMARK  112  A    between atoms: _250  and  _251
REMARK  113  A    between atoms: _256  and  _258
REMARK  114  A    between atoms: _258  and  _259
REMARK  115  A    between atoms: _258  and  _261
REMARK  116  A    between atoms: _261  and  _262
REMARK  117  A    between atoms: _267  and  _269
REMARK  118  A    between atoms: _269  and  _270
REMARK  119  A    between atoms: _269  and  _272
REMARK  120  A    between atoms: _272  and  _273
REMARK  121  A    between atoms: _276  and  _278
REMARK  122  A    between atoms: _278  and  _279
REMARK  123  A    between atoms: _281  and  _283
REMARK  124  A    between atoms: _283  and  _284
REMARK  125  A    between atoms: _283  and  _286
REMARK  126  A    between atoms: _286  and  _287
REMARK  127  A    between atoms: _290  and  _292
REMARK  128  A    between atoms: _292  and  _293
REMARK  129  A    between atoms: _292  and  _295
REMARK  130  A    between atoms: _295  and  _296
REMARK  131  A    between atoms: _299  and  _301
REMARK  132  A    between atoms: _301  and  _302
REMARK  133  A    between atoms: _305  and  _307
REMARK  134  A    between atoms: _307  and  _308
REMARK  135  A    between atoms: _307  and  _310
REMARK  136  A    between atoms: _310  and  _311
REMARK  137  A    between atoms: _311  and  _312
REMARK  138  A    between atoms: _312  and  _313
REMARK  139  A    between atoms: _313  and  _314
REMARK  140  A    between atoms: _318  and  _320
REMARK  141  A    between atoms: _320  and  _321
REMARK  142  A    between atoms: _323  and  _325
REMARK  143  A    between atoms: _325  and  _326
REMARK  144  A    between atoms: _325  and  _328
REMARK  145  A    between atoms: _328  and  _329
REMARK  146  A    between atoms: _332  and  _334
REMARK  147  A    between atoms: _334  and  _335
REMARK  148  A    between atoms: _334  and  _337
REMARK  149  A    between atoms: _337  and  _338
REMARK  150  A    between atoms: _344  and  _346
REMARK  151  A    between atoms: _346  and  _347
REMARK  152  A    between atoms: _349  and  _351
REMARK  153  A    between atoms: _351  and  _352
REMARK  154  A    between atoms: _351  and  _354
REMARK  155  A    between atoms: _357  and  _359
REMARK  156  A    between atoms: _359  and  _360
REMARK  157  A    between atoms: _362  and  _364
REMARK  158  A    between atoms: _364  and  _365
REMARK  159  A    between atoms: _364  and  _367
REMARK  160  A    between atoms: _367  and  _368
REMARK  161  A    between atoms: _374  and  _376
REMARK  162  A    between atoms: _376  and  _377
REMARK  163  A    between atoms: _376  and  _379
REMARK  164  A    between atoms: _379  and  _380
REMARK  165  A    between atoms: _385  and  _386
REMARK  166  A    between atoms: _388  and  _390
REMARK  167  A    between atoms: _390  and  _391
REMARK  168  A    between atoms: _390  and  _393
REMARK  169  A    between atoms: _393  and  _394
REMARK  170  A    between atoms: _396  and  _398
REMARK  171  A    between atoms: _398  and  _399
REMARK  172  A    between atoms: _398  and  _401
REMARK  173  A    between atoms: _401  and  _402
REMARK  174  A    between atoms: _407  and  _408
REMARK  175  A    between atoms: _410  and  _412
REMARK  176  A    between atoms: _412  and  _413
REMARK  177  A    between atoms: _412  and  _415
REMARK  178  A    between atoms: _418  and  _420
REMARK  179  A    between atoms: _420  and  _421
REMARK  180  A    between atoms: _420  and  _423
REMARK  181  A    between atoms: _423  and  _424
REMARK  182  A    between atoms: _427  and  _429
REMARK  183  A    between atoms: _429  and  _430
REMARK  184  A    between atoms: _429  and  _432
REMARK  185  A    between atoms: _435  and  _437
REMARK  186  A    between atoms: _437  and  _438
REMARK  187  A    between atoms: _437  and  _440
REMARK  188  A    between atoms: _440  and  _441
REMARK  189  A    between atoms: _444  and  _446
REMARK  190  A    between atoms: _446  and  _447
REMARK  191  A    between atoms: _446  and  _449
REMARK  192  A    between atoms: _449  and  _450
REMARK  193  A    between atoms: _453  and  _455
REMARK  194  A    between atoms: _455  and  _456
REMARK  195  A    between atoms: _455  and  _458
REMARK  196  A    between atoms: _458  and  _459
REMARK  197  A    between atoms: _459  and  _460
REMARK  198  A    between atoms: _460  and  _461
REMARK  199  A    between atoms: _461  and  _462
REMARK  200  A    between atoms: _466  and  _468
REMARK  201  A    between atoms: _468  and  _469
REMARK  202  A    between atoms: _468  and  _471
REMARK  203  A    between atoms: _471  and  _472
REMARK  204  A    between atoms: _477  and  _479
REMARK  205  A    between atoms: _479  and  _480
REMARK  206  A    between atoms: _483  and  _485
REMARK  207  A    between atoms: _485  and  _486
REMARK  208  A    between atoms: _485  and  _488
REMARK  209  A    between atoms: _488  and  _489
REMARK  210  A    between atoms: _499  and  _501
REMARK  211  A    between atoms: _501  and  _502
REMARK  212  A    between atoms: _501  and  _504
REMARK  213  A    between atoms: _504  and  _505
REMARK  214  A    between atoms: _505  and  _506
REMARK  215  A    between atoms: _509  and  _511
REMARK  216  A    between atoms: _511  and  _512
REMARK  217  A    between atoms: _511  and  _514
REMARK  218  A    between atoms: _514  and  _515
REMARK  219  A    between atoms: _517  and  _519
REMARK  220  A    between atoms: _519  and  _520
REMARK  221  A    between atoms: _519  and  _522
REMARK  222  A    between atoms: _522  and  _523
REMARK  223  A    between atoms: _529  and  _531
REMARK  224  A    between atoms: _531  and  _532
REMARK  225  A    between atoms: _531  and  _534
REMARK  226  A    between atoms: _534  and  _535
REMARK  227  A    between atoms: _538  and  _540
REMARK  228  A    between atoms: _540  and  _541
REMARK  229  A    between atoms: _540  and  _543
REMARK  230  A    between atoms: _546  and  _548
REMARK  231  A    between atoms: _548  and  _549
REMARK  232  A    between atoms: _551  and  _553
REMARK  233  A    between atoms: _553  and  _554
REMARK  234  A    between atoms: _553  and  _556
REMARK  235  A    between atoms: _556  and  _557
REMARK  236  A    between atoms: _560  and  _562
REMARK  237  A    between atoms: _562  and  _563
REMARK  238  A    between atoms: _562  and  _565
REMARK  239  A    between atoms: _565  and  _566
REMARK  240  A    between atoms: _566  and  _567
REMARK  241  A    between atoms: _567  and  _568
REMARK  242  A    between atoms: _568  and  _569
REMARK  243  A    between atoms: _573  and  _575
REMARK  244  A    between atoms: _575  and  _576
REMARK  245  A    between atoms: _575  and  _578
REMARK                            x       y       z     vdW  Elec       q    Type
REMARK                         _______ _______ _______ _____ _____    ______ ____
ROOT
ATOM      1  O   HOH     1       5.337  42.628  23.298  0.00  0.00    +0.000 OA
ENDROOT
TORSDOF 0
