REMARK  Name = ../refined-set-2016/4yha/4yha_pocket.pdb
REMARK  140 active torsions:
REMARK  status: ('A' for Active; 'I' for Inactive)
REMARK    1  A    between atoms: _1  and  _3
REMARK    2  A    between atoms: _3  and  _4
REMARK    3  A    between atoms: _3  and  _6
REMARK    4  A    between atoms: _6  and  _7
REMARK    5  A    between atoms: _17  and  _19
REMARK    6  A    between atoms: _19  and  _20
REMARK    7  A    between atoms: _19  and  _22
REMARK    8  A    between atoms: _22  and  _23
REMARK    9  A    between atoms: _28  and  _29
REMARK   10  A    between atoms: _31  and  _33
REMARK   11  A    between atoms: _33  and  _34
REMARK   12  A    between atoms: _33  and  _36
REMARK   13  A    between atoms: _36  and  _37
REMARK   14  A    between atoms: _40  and  _41
REMARK   15  A    between atoms: _46  and  _48
REMARK   16  A    between atoms: _48  and  _49
REMARK   17  A    between atoms: _48  and  _51
REMARK   18  A    between atoms: _51  and  _52
REMARK   19  A    between atoms: _55  and  _57
REMARK   20  A    between atoms: _57  and  _58
REMARK   21  A    between atoms: _57  and  _60
REMARK   22  A    between atoms: _60  and  _61
REMARK   23  A    between atoms: _66  and  _68
REMARK   24  A    between atoms: _68  and  _69
REMARK   25  A    between atoms: _68  and  _71
REMARK   26  A    between atoms: _71  and  _72
REMARK   27  A    between atoms: _75  and  _77
REMARK   28  A    between atoms: _77  and  _78
REMARK   29  A    between atoms: _77  and  _80
REMARK   30  A    between atoms: _80  and  _81
REMARK   31  A    between atoms: _81  and  _82
REMARK   32  A    between atoms: _82  and  _83
REMARK   33  A    between atoms: _83  and  _84
REMARK   34  A    between atoms: _88  and  _90
REMARK   35  A    between atoms: _90  and  _91
REMARK   36  A    between atoms: _90  and  _93
REMARK   37  A    between atoms: _93  and  _94
REMARK   38  A    between atoms: _96  and  _98
REMARK   39  A    between atoms: _98  and  _99
REMARK   40  A    between atoms: _98  and  _101
REMARK   41  A    between atoms: _101  and  _102
REMARK   42  A    between atoms: _105  and  _107
REMARK   43  A    between atoms: _107  and  _108
REMARK   44  A    between atoms: _107  and  _110
REMARK   45  A    between atoms: _110  and  _111
REMARK   46  A    between atoms: _116  and  _118
REMARK   47  A    between atoms: _118  and  _119
REMARK   48  A    between atoms: _118  and  _121
REMARK   49  A    between atoms: _124  and  _126
REMARK   50  A    between atoms: _137  and  _140
REMARK   51  A    between atoms: _140  and  _141
REMARK   52  A    between atoms: _149  and  _150
REMARK   53  A    between atoms: _158  and  _160
REMARK   54  A    between atoms: _160  and  _161
REMARK   55  A    between atoms: _160  and  _163
REMARK   56  A    between atoms: _163  and  _164
REMARK   57  A    between atoms: _164  and  _165
REMARK   58  A    between atoms: _168  and  _170
REMARK   59  A    between atoms: _170  and  _171
REMARK   60  A    between atoms: _170  and  _173
REMARK   61  A    between atoms: _173  and  _174
REMARK   62  A    between atoms: _180  and  _182
REMARK   63  A    between atoms: _182  and  _183
REMARK   64  A    between atoms: _182  and  _185
REMARK   65  A    between atoms: _185  and  _186
REMARK   66  A    between atoms: _188  and  _190
REMARK   67  A    between atoms: _190  and  _191
REMARK   68  A    between atoms: _194  and  _196
REMARK   69  A    between atoms: _196  and  _197
REMARK   70  A    between atoms: _196  and  _199
REMARK   71  A    between atoms: _199  and  _200
REMARK   72  A    between atoms: _201  and  ZN_391
REMARK   73  A    between atoms: _205  and  _207
REMARK   74  A    between atoms: _207  and  _208
REMARK   75  A    between atoms: _207  and  _210
REMARK   76  A    between atoms: _210  and  _211
REMARK   77  A    between atoms: _217  and  _219
REMARK   78  A    between atoms: _219  and  _220
REMARK   79  A    between atoms: _219  and  _222
REMARK   80  A    between atoms: _225  and  _227
REMARK   81  A    between atoms: _227  and  _228
REMARK   82  A    between atoms: _227  and  _230
REMARK   83  A    between atoms: _230  and  _231
REMARK   84  A    between atoms: _236  and  _238
REMARK   85  A    between atoms: _238  and  _239
REMARK   86  A    between atoms: _238  and  _241
REMARK   87  A    between atoms: _241  and  _242
REMARK   88  A    between atoms: _245  and  _247
REMARK   89  A    between atoms: _247  and  _248
REMARK   90  A    between atoms: _247  and  _250
REMARK   91  A    between atoms: _250  and  _251
REMARK   92  A    between atoms: _254  and  _256
REMARK   93  A    between atoms: _256  and  _257
REMARK   94  A    between atoms: _256  and  _259
REMARK   95  A    between atoms: _262  and  _264
REMARK   96  A    between atoms: _264  and  _265
REMARK   97  A    between atoms: _264  and  _267
REMARK   98  A    between atoms: _267  and  _268
REMARK   99  A    between atoms: _271  and  _273
REMARK  100  A    between atoms: _273  and  _274
REMARK  101  A    between atoms: _277  and  _279
REMARK  102  A    between atoms: _279  and  _280
REMARK  103  A    between atoms: _279  and  _282
REMARK  104  A    between atoms: _282  and  _283
REMARK  105  A    between atoms: _285  and  _287
REMARK  106  A    between atoms: _287  and  _288
REMARK  107  A    between atoms: _287  and  _290
REMARK  108  A    between atoms: _290  and  _291
REMARK  109  A    between atoms: _294  and  _296
REMARK  110  A    between atoms: _296  and  _297
REMARK  111  A    between atoms: _296  and  _299
REMARK  112  A    between atoms: _299  and  _300
REMARK  113  A    between atoms: _303  and  _305
REMARK  114  A    between atoms: _305  and  _306
REMARK  115  A    between atoms: _310  and  _311
REMARK  116  A    between atoms: _317  and  _318
REMARK  117  A    between atoms: _323  and  _325
REMARK  118  A    between atoms: _325  and  _326
REMARK  119  A    between atoms: _325  and  _328
REMARK  120  A    between atoms: _330  and  _332
REMARK  121  A    between atoms: _332  and  _333
REMARK  122  A    between atoms: _332  and  _335
REMARK  123  A    between atoms: _335  and  _336
REMARK  124  A    between atoms: _339  and  _341
REMARK  125  A    between atoms: _341  and  _342
REMARK  126  A    between atoms: _341  and  _344
REMARK  127  A    between atoms: _347  and  _349
REMARK  128  A    between atoms: _349  and  _350
REMARK  129  A    between atoms: _349  and  _352
REMARK  130  A    between atoms: _352  and  _353
REMARK  131  A    between atoms: _363  and  _365
REMARK  132  A    between atoms: _365  and  _366
REMARK  133  A    between atoms: _365  and  _368
REMARK  134  A    between atoms: _368  and  _369
REMARK  135  A    between atoms: _374  and  _376
REMARK  136  A    between atoms: _376  and  _377
REMARK  137  A    between atoms: _376  and  _379
REMARK  138  A    between atoms: _379  and  _380
REMARK  139  A    between atoms: _380  and  _381
REMARK  140  A    between atoms: _381  and  _382
REMARK                            x       y       z     vdW  Elec       q    Type
REMARK                         _______ _______ _______ _____ _____    ______ ____
ROOT
ATOM      1  CG  TRP A   1      46.651  39.885  80.597  0.00  0.00    -0.002 A 
ATOM      2  CD2 TRP A   1      46.598  40.319  81.966  0.00  0.00    +0.013 A 
ATOM      3  CE3 TRP A   1      45.813  39.963  83.066  0.00  0.00    +0.001 A 
ATOM      4  CZ3 TRP A   1      46.021  40.607  84.261  0.00  0.00    +0.000 A 
ATOM      5  CH2 TRP A   1      46.991  41.594  84.386  0.00  0.00    +0.001 A 
ATOM      6  CZ2 TRP A   1      47.774  41.967  83.330  0.00  0.00    +0.017 A 
ATOM      7  CE2 TRP A   1      47.565  41.324  82.122  0.00  0.00    +0.056 A 
ATOM      8  NE1 TRP A   1      48.185  41.487  80.914  0.00  0.00    -0.352 N 
ATOM      9  HE1 TRP A   1      48.952  42.160  80.713  0.00  0.00    +0.166 HD
ATOM     10  CD1 TRP A   1      47.629  40.616  80.009  0.00  0.00    +0.068 A 
ENDROOT
BRANCH   1  11
ATOM     11  CB  TRP A   1      45.812  38.818  79.955  0.00  0.00    +0.053 C 
BRANCH  11  12
ATOM     12  CA  TRP A   1      44.509  39.282  79.282  0.00  0.00    +0.137 C 
BRANCH  12  13
ATOM     13  N   TRP A   1      44.801  40.228  78.211  0.00  0.00    -0.239 NA
ATOM     14  H   TRP A   1      45.720  40.714  78.224  0.00  0.00    +0.142 HD
ENDBRANCH  12  13
BRANCH  12  15
ATOM     15  C   TRP A   1      43.545  39.807  80.337  0.00  0.00    +0.224 C 
ATOM     16  O   TRP A   1      43.624  40.961  80.751  0.00  0.00    -0.287 OA
ENDBRANCH  12  15
ENDBRANCH  11  12
ENDBRANCH   1  11
TORSDOF 4
REMARK  Name = ../refined-set-2016/4yha/4yha_pocket.pdb
REMARK  140 active torsions:
REMARK  status: ('A' for Active; 'I' for Inactive)
REMARK    1  A    between atoms: _1  and  _3
REMARK    2  A    between atoms: _3  and  _4
REMARK    3  A    between atoms: _3  and  _6
REMARK    4  A    between atoms: _6  and  _7
REMARK    5  A    between atoms: _17  and  _19
REMARK    6  A    between atoms: _19  and  _20
REMARK    7  A    between atoms: _19  and  _22
REMARK    8  A    between atoms: _22  and  _23
REMARK    9  A    between atoms: _28  and  _29
REMARK   10  A    between atoms: _31  and  _33
REMARK   11  A    between atoms: _33  and  _34
REMARK   12  A    between atoms: _33  and  _36
REMARK   13  A    between atoms: _36  and  _37
REMARK   14  A    between atoms: _40  and  _41
REMARK   15  A    between atoms: _46  and  _48
REMARK   16  A    between atoms: _48  and  _49
REMARK   17  A    between atoms: _48  and  _51
REMARK   18  A    between atoms: _51  and  _52
REMARK   19  A    between atoms: _55  and  _57
REMARK   20  A    between atoms: _57  and  _58
REMARK   21  A    between atoms: _57  and  _60
REMARK   22  A    between atoms: _60  and  _61
REMARK   23  A    between atoms: _66  and  _68
REMARK   24  A    between atoms: _68  and  _69
REMARK   25  A    between atoms: _68  and  _71
REMARK   26  A    between atoms: _71  and  _72
REMARK   27  A    between atoms: _75  and  _77
REMARK   28  A    between atoms: _77  and  _78
REMARK   29  A    between atoms: _77  and  _80
REMARK   30  A    between atoms: _80  and  _81
REMARK   31  A    between atoms: _81  and  _82
REMARK   32  A    between atoms: _82  and  _83
REMARK   33  A    between atoms: _83  and  _84
REMARK   34  A    between atoms: _88  and  _90
REMARK   35  A    between atoms: _90  and  _91
REMARK   36  A    between atoms: _90  and  _93
REMARK   37  A    between atoms: _93  and  _94
REMARK   38  A    between atoms: _96  and  _98
REMARK   39  A    between atoms: _98  and  _99
REMARK   40  A    between atoms: _98  and  _101
REMARK   41  A    between atoms: _101  and  _102
REMARK   42  A    between atoms: _105  and  _107
REMARK   43  A    between atoms: _107  and  _108
REMARK   44  A    between atoms: _107  and  _110
REMARK   45  A    between atoms: _110  and  _111
REMARK   46  A    between atoms: _116  and  _118
REMARK   47  A    between atoms: _118  and  _119
REMARK   48  A    between atoms: _118  and  _121
REMARK   49  A    between atoms: _124  and  _126
REMARK   50  A    between atoms: _137  and  _140
REMARK   51  A    between atoms: _140  and  _141
REMARK   52  A    between atoms: _149  and  _150
REMARK   53  A    between atoms: _158  and  _160
REMARK   54  A    between atoms: _160  and  _161
REMARK   55  A    between atoms: _160  and  _163
REMARK   56  A    between atoms: _163  and  _164
REMARK   57  A    between atoms: _164  and  _165
REMARK   58  A    between atoms: _168  and  _170
REMARK   59  A    between atoms: _170  and  _171
REMARK   60  A    between atoms: _170  and  _173
REMARK   61  A    between atoms: _173  and  _174
REMARK   62  A    between atoms: _180  and  _182
REMARK   63  A    between atoms: _182  and  _183
REMARK   64  A    between atoms: _182  and  _185
REMARK   65  A    between atoms: _185  and  _186
REMARK   66  A    between atoms: _188  and  _190
REMARK   67  A    between atoms: _190  and  _191
REMARK   68  A    between atoms: _194  and  _196
REMARK   69  A    between atoms: _196  and  _197
REMARK   70  A    between atoms: _196  and  _199
REMARK   71  A    between atoms: _199  and  _200
REMARK   72  A    between atoms: _201  and  ZN_391
REMARK   73  A    between atoms: _205  and  _207
REMARK   74  A    between atoms: _207  and  _208
REMARK   75  A    between atoms: _207  and  _210
REMARK   76  A    between atoms: _210  and  _211
REMARK   77  A    between atoms: _217  and  _219
REMARK   78  A    between atoms: _219  and  _220
REMARK   79  A    between atoms: _219  and  _222
REMARK   80  A    between atoms: _225  and  _227
REMARK   81  A    between atoms: _227  and  _228
REMARK   82  A    between atoms: _227  and  _230
REMARK   83  A    between atoms: _230  and  _231
REMARK   84  A    between atoms: _236  and  _238
REMARK   85  A    between atoms: _238  and  _239
REMARK   86  A    between atoms: _238  and  _241
REMARK   87  A    between atoms: _241  and  _242
REMARK   88  A    between atoms: _245  and  _247
REMARK   89  A    between atoms: _247  and  _248
REMARK   90  A    between atoms: _247  and  _250
REMARK   91  A    between atoms: _250  and  _251
REMARK   92  A    between atoms: _254  and  _256
REMARK   93  A    between atoms: _256  and  _257
REMARK   94  A    between atoms: _256  and  _259
REMARK   95  A    between atoms: _262  and  _264
REMARK   96  A    between atoms: _264  and  _265
REMARK   97  A    between atoms: _264  and  _267
REMARK   98  A    between atoms: _267  and  _268
REMARK   99  A    between atoms: _271  and  _273
REMARK  100  A    between atoms: _273  and  _274
REMARK  101  A    between atoms: _277  and  _279
REMARK  102  A    between atoms: _279  and  _280
REMARK  103  A    between atoms: _279  and  _282
REMARK  104  A    between atoms: _282  and  _283
REMARK  105  A    between atoms: _285  and  _287
REMARK  106  A    between atoms: _287  and  _288
REMARK  107  A    between atoms: _287  and  _290
REMARK  108  A    between atoms: _290  and  _291
REMARK  109  A    between atoms: _294  and  _296
REMARK  110  A    between atoms: _296  and  _297
REMARK  111  A    between atoms: _296  and  _299
REMARK  112  A    between atoms: _299  and  _300
REMARK  113  A    between atoms: _303  and  _305
REMARK  114  A    between atoms: _305  and  _306
REMARK  115  A    between atoms: _310  and  _311
REMARK  116  A    between atoms: _317  and  _318
REMARK  117  A    between atoms: _323  and  _325
REMARK  118  A    between atoms: _325  and  _326
REMARK  119  A    between atoms: _325  and  _328
REMARK  120  A    between atoms: _330  and  _332
REMARK  121  A    between atoms: _332  and  _333
REMARK  122  A    between atoms: _332  and  _335
REMARK  123  A    between atoms: _335  and  _336
REMARK  124  A    between atoms: _339  and  _341
REMARK  125  A    between atoms: _341  and  _342
REMARK  126  A    between atoms: _341  and  _344
REMARK  127  A    between atoms: _347  and  _349
REMARK  128  A    between atoms: _349  and  _350
REMARK  129  A    between atoms: _349  and  _352
REMARK  130  A    between atoms: _352  and  _353
REMARK  131  A    between atoms: _363  and  _365
REMARK  132  A    between atoms: _365  and  _366
REMARK  133  A    between atoms: _365  and  _368
REMARK  134  A    between atoms: _368  and  _369
REMARK  135  A    between atoms: _374  and  _376
REMARK  136  A    between atoms: _376  and  _377
REMARK  137  A    between atoms: _376  and  _379
REMARK  138  A    between atoms: _379  and  _380
REMARK  139  A    between atoms: _380  and  _381
REMARK  140  A    between atoms: _381  and  _382
REMARK                            x       y       z     vdW  Elec       q    Type
REMARK                         _______ _______ _______ _____ _____    ______ ____
ROOT
ATOM      1  CG  TYR A   1      41.833  38.567  86.552  0.00  0.00    -0.020 A 
ATOM      2  CD2 TYR A   1      42.701  37.868  87.370  0.00  0.00    -0.001 A 
ATOM      3  CE2 TYR A   1      43.934  38.370  87.697  0.00  0.00    +0.036 A 
ATOM      4  CZ  TYR A   1      44.325  39.575  87.198  0.00  0.00    +0.134 A 
ATOM      5  CE1 TYR A   1      43.492  40.297  86.374  0.00  0.00    +0.036 A 
ATOM      6  CD1 TYR A   1      42.258  39.784  86.040  0.00  0.00    -0.001 A 
ENDROOT
BRANCH   4   7
ATOM      7  OH  TYR A   1      45.552  40.054  87.550  0.00  0.00    -0.506 OA
ATOM      8  HH  TYR A   1      45.594  40.160  88.533  0.00  0.00    +0.292 HD
ENDBRANCH   4   7
BRANCH   1   9
ATOM      9  CB  TYR A   1      40.476  37.994  86.202  0.00  0.00    +0.051 C 
BRANCH   9  10
ATOM     10  CA  TYR A   1      40.357  37.406  84.805  0.00  0.00    +0.137 C 
BRANCH  10  11
ATOM     11  N   TYR A   1      40.655  38.400  83.787  0.00  0.00    -0.239 NA
ATOM     12  H   TYR A   1      40.140  39.304  83.805  0.00  0.00    +0.142 HD
ENDBRANCH  10  11
BRANCH  10  13
ATOM     13  C   TYR A   1      38.954  36.842  84.574  0.00  0.00    +0.224 C 
ATOM     14  O   TYR A   1      38.364  36.232  85.459  0.00  0.00    -0.287 OA
ENDBRANCH  10  13
ENDBRANCH   9  10
ENDBRANCH   1   9
TORSDOF 5
REMARK  Name = ../refined-set-2016/4yha/4yha_pocket.pdb
REMARK  140 active torsions:
REMARK  status: ('A' for Active; 'I' for Inactive)
REMARK    1  A    between atoms: _1  and  _3
REMARK    2  A    between atoms: _3  and  _4
REMARK    3  A    between atoms: _3  and  _6
REMARK    4  A    between atoms: _6  and  _7
REMARK    5  A    between atoms: _17  and  _19
REMARK    6  A    between atoms: _19  and  _20
REMARK    7  A    between atoms: _19  and  _22
REMARK    8  A    between atoms: _22  and  _23
REMARK    9  A    between atoms: _28  and  _29
REMARK   10  A    between atoms: _31  and  _33
REMARK   11  A    between atoms: _33  and  _34
REMARK   12  A    between atoms: _33  and  _36
REMARK   13  A    between atoms: _36  and  _37
REMARK   14  A    between atoms: _40  and  _41
REMARK   15  A    between atoms: _46  and  _48
REMARK   16  A    between atoms: _48  and  _49
REMARK   17  A    between atoms: _48  and  _51
REMARK   18  A    between atoms: _51  and  _52
REMARK   19  A    between atoms: _55  and  _57
REMARK   20  A    between atoms: _57  and  _58
REMARK   21  A    between atoms: _57  and  _60
REMARK   22  A    between atoms: _60  and  _61
REMARK   23  A    between atoms: _66  and  _68
REMARK   24  A    between atoms: _68  and  _69
REMARK   25  A    between atoms: _68  and  _71
REMARK   26  A    between atoms: _71  and  _72
REMARK   27  A    between atoms: _75  and  _77
REMARK   28  A    between atoms: _77  and  _78
REMARK   29  A    between atoms: _77  and  _80
REMARK   30  A    between atoms: _80  and  _81
REMARK   31  A    between atoms: _81  and  _82
REMARK   32  A    between atoms: _82  and  _83
REMARK   33  A    between atoms: _83  and  _84
REMARK   34  A    between atoms: _88  and  _90
REMARK   35  A    between atoms: _90  and  _91
REMARK   36  A    between atoms: _90  and  _93
REMARK   37  A    between atoms: _93  and  _94
REMARK   38  A    between atoms: _96  and  _98
REMARK   39  A    between atoms: _98  and  _99
REMARK   40  A    between atoms: _98  and  _101
REMARK   41  A    between atoms: _101  and  _102
REMARK   42  A    between atoms: _105  and  _107
REMARK   43  A    between atoms: _107  and  _108
REMARK   44  A    between atoms: _107  and  _110
REMARK   45  A    between atoms: _110  and  _111
REMARK   46  A    between atoms: _116  and  _118
REMARK   47  A    between atoms: _118  and  _119
REMARK   48  A    between atoms: _118  and  _121
REMARK   49  A    between atoms: _124  and  _126
REMARK   50  A    between atoms: _137  and  _140
REMARK   51  A    between atoms: _140  and  _141
REMARK   52  A    between atoms: _149  and  _150
REMARK   53  A    between atoms: _158  and  _160
REMARK   54  A    between atoms: _160  and  _161
REMARK   55  A    between atoms: _160  and  _163
REMARK   56  A    between atoms: _163  and  _164
REMARK   57  A    between atoms: _164  and  _165
REMARK   58  A    between atoms: _168  and  _170
REMARK   59  A    between atoms: _170  and  _171
REMARK   60  A    between atoms: _170  and  _173
REMARK   61  A    between atoms: _173  and  _174
REMARK   62  A    between atoms: _180  and  _182
REMARK   63  A    between atoms: _182  and  _183
REMARK   64  A    between atoms: _182  and  _185
REMARK   65  A    between atoms: _185  and  _186
REMARK   66  A    between atoms: _188  and  _190
REMARK   67  A    between atoms: _190  and  _191
REMARK   68  A    between atoms: _194  and  _196
REMARK   69  A    between atoms: _196  and  _197
REMARK   70  A    between atoms: _196  and  _199
REMARK   71  A    between atoms: _199  and  _200
REMARK   72  A    between atoms: _201  and  ZN_391
REMARK   73  A    between atoms: _205  and  _207
REMARK   74  A    between atoms: _207  and  _208
REMARK   75  A    between atoms: _207  and  _210
REMARK   76  A    between atoms: _210  and  _211
REMARK   77  A    between atoms: _217  and  _219
REMARK   78  A    between atoms: _219  and  _220
REMARK   79  A    between atoms: _219  and  _222
REMARK   80  A    between atoms: _225  and  _227
REMARK   81  A    between atoms: _227  and  _228
REMARK   82  A    between atoms: _227  and  _230
REMARK   83  A    between atoms: _230  and  _231
REMARK   84  A    between atoms: _236  and  _238
REMARK   85  A    between atoms: _238  and  _239
REMARK   86  A    between atoms: _238  and  _241
REMARK   87  A    between atoms: _241  and  _242
REMARK   88  A    between atoms: _245  and  _247
REMARK   89  A    between atoms: _247  and  _248
REMARK   90  A    between atoms: _247  and  _250
REMARK   91  A    between atoms: _250  and  _251
REMARK   92  A    between atoms: _254  and  _256
REMARK   93  A    between atoms: _256  and  _257
REMARK   94  A    between atoms: _256  and  _259
REMARK   95  A    between atoms: _262  and  _264
REMARK   96  A    between atoms: _264  and  _265
REMARK   97  A    between atoms: _264  and  _267
REMARK   98  A    between atoms: _267  and  _268
REMARK   99  A    between atoms: _271  and  _273
REMARK  100  A    between atoms: _273  and  _274
REMARK  101  A    between atoms: _277  and  _279
REMARK  102  A    between atoms: _279  and  _280
REMARK  103  A    between atoms: _279  and  _282
REMARK  104  A    between atoms: _282  and  _283
REMARK  105  A    between atoms: _285  and  _287
REMARK  106  A    between atoms: _287  and  _288
REMARK  107  A    between atoms: _287  and  _290
REMARK  108  A    between atoms: _290  and  _291
REMARK  109  A    between atoms: _294  and  _296
REMARK  110  A    between atoms: _296  and  _297
REMARK  111  A    between atoms: _296  and  _299
REMARK  112  A    between atoms: _299  and  _300
REMARK  113  A    between atoms: _303  and  _305
REMARK  114  A    between atoms: _305  and  _306
REMARK  115  A    between atoms: _310  and  _311
REMARK  116  A    between atoms: _317  and  _318
REMARK  117  A    between atoms: _323  and  _325
REMARK  118  A    between atoms: _325  and  _326
REMARK  119  A    between atoms: _325  and  _328
REMARK  120  A    between atoms: _330  and  _332
REMARK  121  A    between atoms: _332  and  _333
REMARK  122  A    between atoms: _332  and  _335
REMARK  123  A    between atoms: _335  and  _336
REMARK  124  A    between atoms: _339  and  _341
REMARK  125  A    between atoms: _341  and  _342
REMARK  126  A    between atoms: _341  and  _344
REMARK  127  A    between atoms: _347  and  _349
REMARK  128  A    between atoms: _349  and  _350
REMARK  129  A    between atoms: _349  and  _352
REMARK  130  A    between atoms: _352  and  _353
REMARK  131  A    between atoms: _363  and  _365
REMARK  132  A    between atoms: _365  and  _366
REMARK  133  A    between atoms: _365  and  _368
REMARK  134  A    between atoms: _368  and  _369
REMARK  135  A    between atoms: _374  and  _376
REMARK  136  A    between atoms: _376  and  _377
REMARK  137  A    between atoms: _376  and  _379
REMARK  138  A    between atoms: _379  and  _380
REMARK  139  A    between atoms: _380  and  _381
REMARK  140  A    between atoms: _381  and  _382
REMARK                            x       y       z     vdW  Elec       q    Type
REMARK                         _______ _______ _______ _____ _____    ______ ____
ROOT
ATOM      1  C   SER A   1      50.802  32.905  91.719  0.00  0.00    +0.244 C 
ATOM      2  N   PRO A   2      49.808  33.018  92.630  0.00  0.00    -0.273 N 
ATOM      3  CA  PRO A   2      49.880  32.839  94.078  0.00  0.00    +0.140 C 
ATOM      4  CB  PRO A   2      48.735  33.701  94.575  0.00  0.00    +0.030 C 
ATOM      5  CG  PRO A   2      47.727  33.555  93.560  0.00  0.00    +0.024 C 
ATOM      6  CD  PRO A   2      48.448  33.411  92.232  0.00  0.00    +0.094 C 
ATOM      7  O   SER A   1      50.628  33.139  90.520  0.00  0.00    -0.273 OA
ENDROOT
BRANCH   3   8
ATOM      8  C   PRO A   2      49.686  31.402  94.486  0.00  0.00    +0.227 C 
ATOM      9  O   PRO A   2      49.319  30.574  93.683  0.00  0.00    -0.286 OA
ENDBRANCH   3   8
BRANCH   1  10
ATOM     10  CA  SER A   1      52.178  32.435  92.218  0.00  0.00    +0.175 C 
BRANCH  10  11
ATOM     11  N   SER A   1      52.963  31.801  91.159  0.00  0.00    -0.236 NA
ATOM     12  H   SER A   1      53.295  32.408  90.382  0.00  0.00    +0.142 HD
ENDBRANCH  10  11
BRANCH  10  13
ATOM     13  CB  SER A   1      52.952  33.618  92.811  0.00  0.00    +0.163 C 
BRANCH  13  14
ATOM     14  OG  SER A   1      54.230  33.218  93.255  0.00  0.00    -0.380 OA
ATOM     15  H   SER A   1      54.133  32.521  93.952  0.00  0.00    +0.211 HD
ENDBRANCH  13  14
ENDBRANCH  10  13
ENDBRANCH   1  10
TORSDOF 5
REMARK  Name = ../refined-set-2016/4yha/4yha_pocket.pdb
REMARK  140 active torsions:
REMARK  status: ('A' for Active; 'I' for Inactive)
REMARK    1  A    between atoms: _1  and  _3
REMARK    2  A    between atoms: _3  and  _4
REMARK    3  A    between atoms: _3  and  _6
REMARK    4  A    between atoms: _6  and  _7
REMARK    5  A    between atoms: _17  and  _19
REMARK    6  A    between atoms: _19  and  _20
REMARK    7  A    between atoms: _19  and  _22
REMARK    8  A    between atoms: _22  and  _23
REMARK    9  A    between atoms: _28  and  _29
REMARK   10  A    between atoms: _31  and  _33
REMARK   11  A    between atoms: _33  and  _34
REMARK   12  A    between atoms: _33  and  _36
REMARK   13  A    between atoms: _36  and  _37
REMARK   14  A    between atoms: _40  and  _41
REMARK   15  A    between atoms: _46  and  _48
REMARK   16  A    between atoms: _48  and  _49
REMARK   17  A    between atoms: _48  and  _51
REMARK   18  A    between atoms: _51  and  _52
REMARK   19  A    between atoms: _55  and  _57
REMARK   20  A    between atoms: _57  and  _58
REMARK   21  A    between atoms: _57  and  _60
REMARK   22  A    between atoms: _60  and  _61
REMARK   23  A    between atoms: _66  and  _68
REMARK   24  A    between atoms: _68  and  _69
REMARK   25  A    between atoms: _68  and  _71
REMARK   26  A    between atoms: _71  and  _72
REMARK   27  A    between atoms: _75  and  _77
REMARK   28  A    between atoms: _77  and  _78
REMARK   29  A    between atoms: _77  and  _80
REMARK   30  A    between atoms: _80  and  _81
REMARK   31  A    between atoms: _81  and  _82
REMARK   32  A    between atoms: _82  and  _83
REMARK   33  A    between atoms: _83  and  _84
REMARK   34  A    between atoms: _88  and  _90
REMARK   35  A    between atoms: _90  and  _91
REMARK   36  A    between atoms: _90  and  _93
REMARK   37  A    between atoms: _93  and  _94
REMARK   38  A    between atoms: _96  and  _98
REMARK   39  A    between atoms: _98  and  _99
REMARK   40  A    between atoms: _98  and  _101
REMARK   41  A    between atoms: _101  and  _102
REMARK   42  A    between atoms: _105  and  _107
REMARK   43  A    between atoms: _107  and  _108
REMARK   44  A    between atoms: _107  and  _110
REMARK   45  A    between atoms: _110  and  _111
REMARK   46  A    between atoms: _116  and  _118
REMARK   47  A    between atoms: _118  and  _119
REMARK   48  A    between atoms: _118  and  _121
REMARK   49  A    between atoms: _124  and  _126
REMARK   50  A    between atoms: _137  and  _140
REMARK   51  A    between atoms: _140  and  _141
REMARK   52  A    between atoms: _149  and  _150
REMARK   53  A    between atoms: _158  and  _160
REMARK   54  A    between atoms: _160  and  _161
REMARK   55  A    between atoms: _160  and  _163
REMARK   56  A    between atoms: _163  and  _164
REMARK   57  A    between atoms: _164  and  _165
REMARK   58  A    between atoms: _168  and  _170
REMARK   59  A    between atoms: _170  and  _171
REMARK   60  A    between atoms: _170  and  _173
REMARK   61  A    between atoms: _173  and  _174
REMARK   62  A    between atoms: _180  and  _182
REMARK   63  A    between atoms: _182  and  _183
REMARK   64  A    between atoms: _182  and  _185
REMARK   65  A    between atoms: _185  and  _186
REMARK   66  A    between atoms: _188  and  _190
REMARK   67  A    between atoms: _190  and  _191
REMARK   68  A    between atoms: _194  and  _196
REMARK   69  A    between atoms: _196  and  _197
REMARK   70  A    between atoms: _196  and  _199
REMARK   71  A    between atoms: _199  and  _200
REMARK   72  A    between atoms: _201  and  ZN_391
REMARK   73  A    between atoms: _205  and  _207
REMARK   74  A    between atoms: _207  and  _208
REMARK   75  A    between atoms: _207  and  _210
REMARK   76  A    between atoms: _210  and  _211
REMARK   77  A    between atoms: _217  and  _219
REMARK   78  A    between atoms: _219  and  _220
REMARK   79  A    between atoms: _219  and  _222
REMARK   80  A    between atoms: _225  and  _227
REMARK   81  A    between atoms: _227  and  _228
REMARK   82  A    between atoms: _227  and  _230
REMARK   83  A    between atoms: _230  and  _231
REMARK   84  A    between atoms: _236  and  _238
REMARK   85  A    between atoms: _238  and  _239
REMARK   86  A    between atoms: _238  and  _241
REMARK   87  A    between atoms: _241  and  _242
REMARK   88  A    between atoms: _245  and  _247
REMARK   89  A    between atoms: _247  and  _248
REMARK   90  A    between atoms: _247  and  _250
REMARK   91  A    between atoms: _250  and  _251
REMARK   92  A    between atoms: _254  and  _256
REMARK   93  A    between atoms: _256  and  _257
REMARK   94  A    between atoms: _256  and  _259
REMARK   95  A    between atoms: _262  and  _264
REMARK   96  A    between atoms: _264  and  _265
REMARK   97  A    between atoms: _264  and  _267
REMARK   98  A    between atoms: _267  and  _268
REMARK   99  A    between atoms: _271  and  _273
REMARK  100  A    between atoms: _273  and  _274
REMARK  101  A    between atoms: _277  and  _279
REMARK  102  A    between atoms: _279  and  _280
REMARK  103  A    between atoms: _279  and  _282
REMARK  104  A    between atoms: _282  and  _283
REMARK  105  A    between atoms: _285  and  _287
REMARK  106  A    between atoms: _287  and  _288
REMARK  107  A    between atoms: _287  and  _290
REMARK  108  A    between atoms: _290  and  _291
REMARK  109  A    between atoms: _294  and  _296
REMARK  110  A    between atoms: _296  and  _297
REMARK  111  A    between atoms: _296  and  _299
REMARK  112  A    between atoms: _299  and  _300
REMARK  113  A    between atoms: _303  and  _305
REMARK  114  A    between atoms: _305  and  _306
REMARK  115  A    between atoms: _310  and  _311
REMARK  116  A    between atoms: _317  and  _318
REMARK  117  A    between atoms: _323  and  _325
REMARK  118  A    between atoms: _325  and  _326
REMARK  119  A    between atoms: _325  and  _328
REMARK  120  A    between atoms: _330  and  _332
REMARK  121  A    between atoms: _332  and  _333
REMARK  122  A    between atoms: _332  and  _335
REMARK  123  A    between atoms: _335  and  _336
REMARK  124  A    between atoms: _339  and  _341
REMARK  125  A    between atoms: _341  and  _342
REMARK  126  A    between atoms: _341  and  _344
REMARK  127  A    between atoms: _347  and  _349
REMARK  128  A    between atoms: _349  and  _350
REMARK  129  A    between atoms: _349  and  _352
REMARK  130  A    between atoms: _352  and  _353
REMARK  131  A    between atoms: _363  and  _365
REMARK  132  A    between atoms: _365  and  _366
REMARK  133  A    between atoms: _365  and  _368
REMARK  134  A    between atoms: _368  and  _369
REMARK  135  A    between atoms: _374  and  _376
REMARK  136  A    between atoms: _376  and  _377
REMARK  137  A    between atoms: _376  and  _379
REMARK  138  A    between atoms: _379  and  _380
REMARK  139  A    between atoms: _380  and  _381
REMARK  140  A    between atoms: _381  and  _382
REMARK                            x       y       z     vdW  Elec       q    Type
REMARK                         _______ _______ _______ _____ _____    ______ ____
ROOT
ATOM      1  C   THR A   1      45.969  48.359  84.716  0.00  0.00    +0.241 C 
ATOM      2  O   THR A   1      46.228  47.900  85.816  0.00  0.00    -0.274 OA
ATOM      3  N   HIS A   2      45.593  47.588  83.701  0.00  0.00    -0.298 N 
ATOM      4  H   HIS A   2      45.322  48.026  82.798  0.00  0.00    +0.150 HD
ENDROOT
BRANCH   1   5
ATOM      5  CA  THR A   1      46.068  49.867  84.482  0.00  0.00    +0.172 C 
BRANCH   5   6
ATOM      6  N   THR A   1      45.459  50.589  85.585  0.00  0.00    -0.236 NA
ATOM      7  H   THR A   1      45.449  50.157  86.531  0.00  0.00    +0.142 HD
ENDBRANCH   5   6
BRANCH   5   8
ATOM      8  CB  THR A   1      47.525  50.271  84.299  0.00  0.00    +0.135 C 
ATOM      9  CG2 THR A   1      48.317  50.068  85.601  0.00  0.00    +0.034 C 
BRANCH   8  10
ATOM     10  OG1 THR A   1      48.092  49.506  83.231  0.00  0.00    -0.383 OA
ATOM     11  HG1 THR A   1      49.040  49.765  83.108  0.00  0.00    +0.210 HD
ENDBRANCH   8  10
ENDBRANCH   5   8
ENDBRANCH   1   5
BRANCH   3  12
ATOM     12  CA  HIS A   2      45.555  46.123  83.837  0.00  0.00    +0.143 C 
BRANCH  12  13
ATOM     13  C   HIS A   2      44.798  45.590  85.055  0.00  0.00    +0.227 C 
ATOM     14  O   HIS A   2      45.361  44.820  85.837  0.00  0.00    -0.286 OA
ENDBRANCH  12  13
BRANCH  12  15
ATOM     15  CB  HIS A   2      46.974  45.555  83.894  0.00  0.00    +0.075 C 
BRANCH  15  16
ATOM     16  CG  HIS A   2      47.704  45.618  82.598  0.00  0.00    +0.082 A 
ATOM     17  CD2 HIS A   2      48.775  46.350  82.212  0.00  0.00    +0.115 A 
ATOM     18  NE2 HIS A   2      49.040  46.020  80.906  0.00  0.00    -0.221 NA
ATOM     19  CE1 HIS A   2      48.164  45.116  80.506  0.00  0.00    +0.199 A 
ATOM     20  ND1 HIS A   2      47.345  44.856  81.509  0.00  0.00    -0.227 NA
ENDBRANCH  15  16
ENDBRANCH  12  15
ENDBRANCH   3  12
TORSDOF 8
REMARK  Name = ../refined-set-2016/4yha/4yha_pocket.pdb
REMARK  140 active torsions:
REMARK  status: ('A' for Active; 'I' for Inactive)
REMARK    1  A    between atoms: _1  and  _3
REMARK    2  A    between atoms: _3  and  _4
REMARK    3  A    between atoms: _3  and  _6
REMARK    4  A    between atoms: _6  and  _7
REMARK    5  A    between atoms: _17  and  _19
REMARK    6  A    between atoms: _19  and  _20
REMARK    7  A    between atoms: _19  and  _22
REMARK    8  A    between atoms: _22  and  _23
REMARK    9  A    between atoms: _28  and  _29
REMARK   10  A    between atoms: _31  and  _33
REMARK   11  A    between atoms: _33  and  _34
REMARK   12  A    between atoms: _33  and  _36
REMARK   13  A    between atoms: _36  and  _37
REMARK   14  A    between atoms: _40  and  _41
REMARK   15  A    between atoms: _46  and  _48
REMARK   16  A    between atoms: _48  and  _49
REMARK   17  A    between atoms: _48  and  _51
REMARK   18  A    between atoms: _51  and  _52
REMARK   19  A    between atoms: _55  and  _57
REMARK   20  A    between atoms: _57  and  _58
REMARK   21  A    between atoms: _57  and  _60
REMARK   22  A    between atoms: _60  and  _61
REMARK   23  A    between atoms: _66  and  _68
REMARK   24  A    between atoms: _68  and  _69
REMARK   25  A    between atoms: _68  and  _71
REMARK   26  A    between atoms: _71  and  _72
REMARK   27  A    between atoms: _75  and  _77
REMARK   28  A    between atoms: _77  and  _78
REMARK   29  A    between atoms: _77  and  _80
REMARK   30  A    between atoms: _80  and  _81
REMARK   31  A    between atoms: _81  and  _82
REMARK   32  A    between atoms: _82  and  _83
REMARK   33  A    between atoms: _83  and  _84
REMARK   34  A    between atoms: _88  and  _90
REMARK   35  A    between atoms: _90  and  _91
REMARK   36  A    between atoms: _90  and  _93
REMARK   37  A    between atoms: _93  and  _94
REMARK   38  A    between atoms: _96  and  _98
REMARK   39  A    between atoms: _98  and  _99
REMARK   40  A    between atoms: _98  and  _101
REMARK   41  A    between atoms: _101  and  _102
REMARK   42  A    between atoms: _105  and  _107
REMARK   43  A    between atoms: _107  and  _108
REMARK   44  A    between atoms: _107  and  _110
REMARK   45  A    between atoms: _110  and  _111
REMARK   46  A    between atoms: _116  and  _118
REMARK   47  A    between atoms: _118  and  _119
REMARK   48  A    between atoms: _118  and  _121
REMARK   49  A    between atoms: _124  and  _126
REMARK   50  A    between atoms: _137  and  _140
REMARK   51  A    between atoms: _140  and  _141
REMARK   52  A    between atoms: _149  and  _150
REMARK   53  A    between atoms: _158  and  _160
REMARK   54  A    between atoms: _160  and  _161
REMARK   55  A    between atoms: _160  and  _163
REMARK   56  A    between atoms: _163  and  _164
REMARK   57  A    between atoms: _164  and  _165
REMARK   58  A    between atoms: _168  and  _170
REMARK   59  A    between atoms: _170  and  _171
REMARK   60  A    between atoms: _170  and  _173
REMARK   61  A    between atoms: _173  and  _174
REMARK   62  A    between atoms: _180  and  _182
REMARK   63  A    between atoms: _182  and  _183
REMARK   64  A    between atoms: _182  and  _185
REMARK   65  A    between atoms: _185  and  _186
REMARK   66  A    between atoms: _188  and  _190
REMARK   67  A    between atoms: _190  and  _191
REMARK   68  A    between atoms: _194  and  _196
REMARK   69  A    between atoms: _196  and  _197
REMARK   70  A    between atoms: _196  and  _199
REMARK   71  A    between atoms: _199  and  _200
REMARK   72  A    between atoms: _201  and  ZN_391
REMARK   73  A    between atoms: _205  and  _207
REMARK   74  A    between atoms: _207  and  _208
REMARK   75  A    between atoms: _207  and  _210
REMARK   76  A    between atoms: _210  and  _211
REMARK   77  A    between atoms: _217  and  _219
REMARK   78  A    between atoms: _219  and  _220
REMARK   79  A    between atoms: _219  and  _222
REMARK   80  A    between atoms: _225  and  _227
REMARK   81  A    between atoms: _227  and  _228
REMARK   82  A    between atoms: _227  and  _230
REMARK   83  A    between atoms: _230  and  _231
REMARK   84  A    between atoms: _236  and  _238
REMARK   85  A    between atoms: _238  and  _239
REMARK   86  A    between atoms: _238  and  _241
REMARK   87  A    between atoms: _241  and  _242
REMARK   88  A    between atoms: _245  and  _247
REMARK   89  A    between atoms: _247  and  _248
REMARK   90  A    between atoms: _247  and  _250
REMARK   91  A    between atoms: _250  and  _251
REMARK   92  A    between atoms: _254  and  _256
REMARK   93  A    between atoms: _256  and  _257
REMARK   94  A    between atoms: _256  and  _259
REMARK   95  A    between atoms: _262  and  _264
REMARK   96  A    between atoms: _264  and  _265
REMARK   97  A    between atoms: _264  and  _267
REMARK   98  A    between atoms: _267  and  _268
REMARK   99  A    between atoms: _271  and  _273
REMARK  100  A    between atoms: _273  and  _274
REMARK  101  A    between atoms: _277  and  _279
REMARK  102  A    between atoms: _279  and  _280
REMARK  103  A    between atoms: _279  and  _282
REMARK  104  A    between atoms: _282  and  _283
REMARK  105  A    between atoms: _285  and  _287
REMARK  106  A    between atoms: _287  and  _288
REMARK  107  A    between atoms: _287  and  _290
REMARK  108  A    between atoms: _290  and  _291
REMARK  109  A    between atoms: _294  and  _296
REMARK  110  A    between atoms: _296  and  _297
REMARK  111  A    between atoms: _296  and  _299
REMARK  112  A    between atoms: _299  and  _300
REMARK  113  A    between atoms: _303  and  _305
REMARK  114  A    between atoms: _305  and  _306
REMARK  115  A    between atoms: _310  and  _311
REMARK  116  A    between atoms: _317  and  _318
REMARK  117  A    between atoms: _323  and  _325
REMARK  118  A    between atoms: _325  and  _326
REMARK  119  A    between atoms: _325  and  _328
REMARK  120  A    between atoms: _330  and  _332
REMARK  121  A    between atoms: _332  and  _333
REMARK  122  A    between atoms: _332  and  _335
REMARK  123  A    between atoms: _335  and  _336
REMARK  124  A    between atoms: _339  and  _341
REMARK  125  A    between atoms: _341  and  _342
REMARK  126  A    between atoms: _341  and  _344
REMARK  127  A    between atoms: _347  and  _349
REMARK  128  A    between atoms: _349  and  _350
REMARK  129  A    between atoms: _349  and  _352
REMARK  130  A    between atoms: _352  and  _353
REMARK  131  A    between atoms: _363  and  _365
REMARK  132  A    between atoms: _365  and  _366
REMARK  133  A    between atoms: _365  and  _368
REMARK  134  A    between atoms: _368  and  _369
REMARK  135  A    between atoms: _374  and  _376
REMARK  136  A    between atoms: _376  and  _377
REMARK  137  A    between atoms: _376  and  _379
REMARK  138  A    between atoms: _379  and  _380
REMARK  139  A    between atoms: _380  and  _381
REMARK  140  A    between atoms: _381  and  _382
REMARK                            x       y       z     vdW  Elec       q    Type
REMARK                         _______ _______ _______ _____ _____    ______ ____
ROOT
ATOM      1  CA  THR A   1      44.363  47.128  89.188  0.00  0.00    +0.160 C 
ENDROOT
BRANCH   1   2
ATOM      2  N   THR A   1      43.969  46.719  87.855  0.00  0.00    -0.237 NA
ATOM      3  H   THR A   1      44.505  47.065  87.034  0.00  0.00    +0.142 HD
ENDBRANCH   1   2
BRANCH   1   4
ATOM      4  CB  THR A   1      45.699  46.494  89.607  0.00  0.00    +0.134 C 
ATOM      5  CG2 THR A   1      46.853  47.149  88.894  0.00  0.00    +0.034 C 
BRANCH   4   6
ATOM      6  OG1 THR A   1      45.885  46.663  91.017  0.00  0.00    -0.383 OA
ATOM      7  HG1 THR A   1      45.143  46.222  91.502  0.00  0.00    +0.210 HD
ENDBRANCH   4   6
ENDBRANCH   1   4
BRANCH   1   8
ATOM      8  C   THR A   1      44.498  48.630  89.350  0.00  0.00    +0.227 C 
ATOM      9  O   THR A   1      44.598  49.382  88.390  0.00  0.00    -0.287 OA
ENDBRANCH   1   8
TORSDOF 4
REMARK  Name = ../refined-set-2016/4yha/4yha_pocket.pdb
REMARK  140 active torsions:
REMARK  status: ('A' for Active; 'I' for Inactive)
REMARK    1  A    between atoms: _1  and  _3
REMARK    2  A    between atoms: _3  and  _4
REMARK    3  A    between atoms: _3  and  _6
REMARK    4  A    between atoms: _6  and  _7
REMARK    5  A    between atoms: _17  and  _19
REMARK    6  A    between atoms: _19  and  _20
REMARK    7  A    between atoms: _19  and  _22
REMARK    8  A    between atoms: _22  and  _23
REMARK    9  A    between atoms: _28  and  _29
REMARK   10  A    between atoms: _31  and  _33
REMARK   11  A    between atoms: _33  and  _34
REMARK   12  A    between atoms: _33  and  _36
REMARK   13  A    between atoms: _36  and  _37
REMARK   14  A    between atoms: _40  and  _41
REMARK   15  A    between atoms: _46  and  _48
REMARK   16  A    between atoms: _48  and  _49
REMARK   17  A    between atoms: _48  and  _51
REMARK   18  A    between atoms: _51  and  _52
REMARK   19  A    between atoms: _55  and  _57
REMARK   20  A    between atoms: _57  and  _58
REMARK   21  A    between atoms: _57  and  _60
REMARK   22  A    between atoms: _60  and  _61
REMARK   23  A    between atoms: _66  and  _68
REMARK   24  A    between atoms: _68  and  _69
REMARK   25  A    between atoms: _68  and  _71
REMARK   26  A    between atoms: _71  and  _72
REMARK   27  A    between atoms: _75  and  _77
REMARK   28  A    between atoms: _77  and  _78
REMARK   29  A    between atoms: _77  and  _80
REMARK   30  A    between atoms: _80  and  _81
REMARK   31  A    between atoms: _81  and  _82
REMARK   32  A    between atoms: _82  and  _83
REMARK   33  A    between atoms: _83  and  _84
REMARK   34  A    between atoms: _88  and  _90
REMARK   35  A    between atoms: _90  and  _91
REMARK   36  A    between atoms: _90  and  _93
REMARK   37  A    between atoms: _93  and  _94
REMARK   38  A    between atoms: _96  and  _98
REMARK   39  A    between atoms: _98  and  _99
REMARK   40  A    between atoms: _98  and  _101
REMARK   41  A    between atoms: _101  and  _102
REMARK   42  A    between atoms: _105  and  _107
REMARK   43  A    between atoms: _107  and  _108
REMARK   44  A    between atoms: _107  and  _110
REMARK   45  A    between atoms: _110  and  _111
REMARK   46  A    between atoms: _116  and  _118
REMARK   47  A    between atoms: _118  and  _119
REMARK   48  A    between atoms: _118  and  _121
REMARK   49  A    between atoms: _124  and  _126
REMARK   50  A    between atoms: _137  and  _140
REMARK   51  A    between atoms: _140  and  _141
REMARK   52  A    between atoms: _149  and  _150
REMARK   53  A    between atoms: _158  and  _160
REMARK   54  A    between atoms: _160  and  _161
REMARK   55  A    between atoms: _160  and  _163
REMARK   56  A    between atoms: _163  and  _164
REMARK   57  A    between atoms: _164  and  _165
REMARK   58  A    between atoms: _168  and  _170
REMARK   59  A    between atoms: _170  and  _171
REMARK   60  A    between atoms: _170  and  _173
REMARK   61  A    between atoms: _173  and  _174
REMARK   62  A    between atoms: _180  and  _182
REMARK   63  A    between atoms: _182  and  _183
REMARK   64  A    between atoms: _182  and  _185
REMARK   65  A    between atoms: _185  and  _186
REMARK   66  A    between atoms: _188  and  _190
REMARK   67  A    between atoms: _190  and  _191
REMARK   68  A    between atoms: _194  and  _196
REMARK   69  A    between atoms: _196  and  _197
REMARK   70  A    between atoms: _196  and  _199
REMARK   71  A    between atoms: _199  and  _200
REMARK   72  A    between atoms: _201  and  ZN_391
REMARK   73  A    between atoms: _205  and  _207
REMARK   74  A    between atoms: _207  and  _208
REMARK   75  A    between atoms: _207  and  _210
REMARK   76  A    between atoms: _210  and  _211
REMARK   77  A    between atoms: _217  and  _219
REMARK   78  A    between atoms: _219  and  _220
REMARK   79  A    between atoms: _219  and  _222
REMARK   80  A    between atoms: _225  and  _227
REMARK   81  A    between atoms: _227  and  _228
REMARK   82  A    between atoms: _227  and  _230
REMARK   83  A    between atoms: _230  and  _231
REMARK   84  A    between atoms: _236  and  _238
REMARK   85  A    between atoms: _238  and  _239
REMARK   86  A    between atoms: _238  and  _241
REMARK   87  A    between atoms: _241  and  _242
REMARK   88  A    between atoms: _245  and  _247
REMARK   89  A    between atoms: _247  and  _248
REMARK   90  A    between atoms: _247  and  _250
REMARK   91  A    between atoms: _250  and  _251
REMARK   92  A    between atoms: _254  and  _256
REMARK   93  A    between atoms: _256  and  _257
REMARK   94  A    between atoms: _256  and  _259
REMARK   95  A    between atoms: _262  and  _264
REMARK   96  A    between atoms: _264  and  _265
REMARK   97  A    between atoms: _264  and  _267
REMARK   98  A    between atoms: _267  and  _268
REMARK   99  A    between atoms: _271  and  _273
REMARK  100  A    between atoms: _273  and  _274
REMARK  101  A    between atoms: _277  and  _279
REMARK  102  A    between atoms: _279  and  _280
REMARK  103  A    between atoms: _279  and  _282
REMARK  104  A    between atoms: _282  and  _283
REMARK  105  A    between atoms: _285  and  _287
REMARK  106  A    between atoms: _287  and  _288
REMARK  107  A    between atoms: _287  and  _290
REMARK  108  A    between atoms: _290  and  _291
REMARK  109  A    between atoms: _294  and  _296
REMARK  110  A    between atoms: _296  and  _297
REMARK  111  A    between atoms: _296  and  _299
REMARK  112  A    between atoms: _299  and  _300
REMARK  113  A    between atoms: _303  and  _305
REMARK  114  A    between atoms: _305  and  _306
REMARK  115  A    between atoms: _310  and  _311
REMARK  116  A    between atoms: _317  and  _318
REMARK  117  A    between atoms: _323  and  _325
REMARK  118  A    between atoms: _325  and  _326
REMARK  119  A    between atoms: _325  and  _328
REMARK  120  A    between atoms: _330  and  _332
REMARK  121  A    between atoms: _332  and  _333
REMARK  122  A    between atoms: _332  and  _335
REMARK  123  A    between atoms: _335  and  _336
REMARK  124  A    between atoms: _339  and  _341
REMARK  125  A    between atoms: _341  and  _342
REMARK  126  A    between atoms: _341  and  _344
REMARK  127  A    between atoms: _347  and  _349
REMARK  128  A    between atoms: _349  and  _350
REMARK  129  A    between atoms: _349  and  _352
REMARK  130  A    between atoms: _352  and  _353
REMARK  131  A    between atoms: _363  and  _365
REMARK  132  A    between atoms: _365  and  _366
REMARK  133  A    between atoms: _365  and  _368
REMARK  134  A    between atoms: _368  and  _369
REMARK  135  A    between atoms: _374  and  _376
REMARK  136  A    between atoms: _376  and  _377
REMARK  137  A    between atoms: _376  and  _379
REMARK  138  A    between atoms: _379  and  _380
REMARK  139  A    between atoms: _380  and  _381
REMARK  140  A    between atoms: _381  and  _382
REMARK                            x       y       z     vdW  Elec       q    Type
REMARK                         _______ _______ _______ _____ _____    ______ ____
ROOT
ATOM      1  CG  LYS A   1      50.587  51.185  89.462  0.00  0.00    -0.000 C 
ENDROOT
BRANCH   1   2
ATOM      2  CB  LYS A   1      49.118  50.854  89.554  0.00  0.00    +0.025 C 
BRANCH   2   3
ATOM      3  CA  LYS A   1      48.433  51.378  90.822  0.00  0.00    +0.133 C 
BRANCH   3   4
ATOM      4  N   LYS A   1      46.995  51.367  90.633  0.00  0.00    -0.239 NA
ATOM      5  H   LYS A   1      46.558  52.016  89.948  0.00  0.00    +0.142 HD
ENDBRANCH   3   4
BRANCH   3   6
ATOM      6  C   LYS A   1      48.964  52.758  91.169  0.00  0.00    +0.224 C 
ATOM      7  O   LYS A   1      48.575  53.746  90.568  0.00  0.00    -0.287 OA
ENDBRANCH   3   6
ENDBRANCH   2   3
ENDBRANCH   1   2
BRANCH   1   8
ATOM      8  CD  LYS A   1      51.228  50.578  88.235  0.00  0.00    -0.024 C 
BRANCH   8   9
ATOM      9  CE  LYS A   1      52.568  51.240  87.956  0.00  0.00    -0.086 C 
BRANCH   9  10
ATOM     10  NZ  LYS A   1      53.446  50.439  87.050  0.00  0.00    +0.380 N 
ATOM     11  HZ1 LYS A   1      53.638  49.514  87.484  0.00  0.00    -0.089 HD
ATOM     12  HZ2 LYS A   1      54.342  50.945  86.901  0.00  0.00    -0.089 HD
ATOM     13  HZ3 LYS A   1      52.967  50.303  86.137  0.00  0.00    -0.089 HD
ENDBRANCH   9  10
ENDBRANCH   8   9
ENDBRANCH   1   8
TORSDOF 7
REMARK  Name = ../refined-set-2016/4yha/4yha_pocket.pdb
REMARK  140 active torsions:
REMARK  status: ('A' for Active; 'I' for Inactive)
REMARK    1  A    between atoms: _1  and  _3
REMARK    2  A    between atoms: _3  and  _4
REMARK    3  A    between atoms: _3  and  _6
REMARK    4  A    between atoms: _6  and  _7
REMARK    5  A    between atoms: _17  and  _19
REMARK    6  A    between atoms: _19  and  _20
REMARK    7  A    between atoms: _19  and  _22
REMARK    8  A    between atoms: _22  and  _23
REMARK    9  A    between atoms: _28  and  _29
REMARK   10  A    between atoms: _31  and  _33
REMARK   11  A    between atoms: _33  and  _34
REMARK   12  A    between atoms: _33  and  _36
REMARK   13  A    between atoms: _36  and  _37
REMARK   14  A    between atoms: _40  and  _41
REMARK   15  A    between atoms: _46  and  _48
REMARK   16  A    between atoms: _48  and  _49
REMARK   17  A    between atoms: _48  and  _51
REMARK   18  A    between atoms: _51  and  _52
REMARK   19  A    between atoms: _55  and  _57
REMARK   20  A    between atoms: _57  and  _58
REMARK   21  A    between atoms: _57  and  _60
REMARK   22  A    between atoms: _60  and  _61
REMARK   23  A    between atoms: _66  and  _68
REMARK   24  A    between atoms: _68  and  _69
REMARK   25  A    between atoms: _68  and  _71
REMARK   26  A    between atoms: _71  and  _72
REMARK   27  A    between atoms: _75  and  _77
REMARK   28  A    between atoms: _77  and  _78
REMARK   29  A    between atoms: _77  and  _80
REMARK   30  A    between atoms: _80  and  _81
REMARK   31  A    between atoms: _81  and  _82
REMARK   32  A    between atoms: _82  and  _83
REMARK   33  A    between atoms: _83  and  _84
REMARK   34  A    between atoms: _88  and  _90
REMARK   35  A    between atoms: _90  and  _91
REMARK   36  A    between atoms: _90  and  _93
REMARK   37  A    between atoms: _93  and  _94
REMARK   38  A    between atoms: _96  and  _98
REMARK   39  A    between atoms: _98  and  _99
REMARK   40  A    between atoms: _98  and  _101
REMARK   41  A    between atoms: _101  and  _102
REMARK   42  A    between atoms: _105  and  _107
REMARK   43  A    between atoms: _107  and  _108
REMARK   44  A    between atoms: _107  and  _110
REMARK   45  A    between atoms: _110  and  _111
REMARK   46  A    between atoms: _116  and  _118
REMARK   47  A    between atoms: _118  and  _119
REMARK   48  A    between atoms: _118  and  _121
REMARK   49  A    between atoms: _124  and  _126
REMARK   50  A    between atoms: _137  and  _140
REMARK   51  A    between atoms: _140  and  _141
REMARK   52  A    between atoms: _149  and  _150
REMARK   53  A    between atoms: _158  and  _160
REMARK   54  A    between atoms: _160  and  _161
REMARK   55  A    between atoms: _160  and  _163
REMARK   56  A    between atoms: _163  and  _164
REMARK   57  A    between atoms: _164  and  _165
REMARK   58  A    between atoms: _168  and  _170
REMARK   59  A    between atoms: _170  and  _171
REMARK   60  A    between atoms: _170  and  _173
REMARK   61  A    between atoms: _173  and  _174
REMARK   62  A    between atoms: _180  and  _182
REMARK   63  A    between atoms: _182  and  _183
REMARK   64  A    between atoms: _182  and  _185
REMARK   65  A    between atoms: _185  and  _186
REMARK   66  A    between atoms: _188  and  _190
REMARK   67  A    between atoms: _190  and  _191
REMARK   68  A    between atoms: _194  and  _196
REMARK   69  A    between atoms: _196  and  _197
REMARK   70  A    between atoms: _196  and  _199
REMARK   71  A    between atoms: _199  and  _200
REMARK   72  A    between atoms: _201  and  ZN_391
REMARK   73  A    between atoms: _205  and  _207
REMARK   74  A    between atoms: _207  and  _208
REMARK   75  A    between atoms: _207  and  _210
REMARK   76  A    between atoms: _210  and  _211
REMARK   77  A    between atoms: _217  and  _219
REMARK   78  A    between atoms: _219  and  _220
REMARK   79  A    between atoms: _219  and  _222
REMARK   80  A    between atoms: _225  and  _227
REMARK   81  A    between atoms: _227  and  _228
REMARK   82  A    between atoms: _227  and  _230
REMARK   83  A    between atoms: _230  and  _231
REMARK   84  A    between atoms: _236  and  _238
REMARK   85  A    between atoms: _238  and  _239
REMARK   86  A    between atoms: _238  and  _241
REMARK   87  A    between atoms: _241  and  _242
REMARK   88  A    between atoms: _245  and  _247
REMARK   89  A    between atoms: _247  and  _248
REMARK   90  A    between atoms: _247  and  _250
REMARK   91  A    between atoms: _250  and  _251
REMARK   92  A    between atoms: _254  and  _256
REMARK   93  A    between atoms: _256  and  _257
REMARK   94  A    between atoms: _256  and  _259
REMARK   95  A    between atoms: _262  and  _264
REMARK   96  A    between atoms: _264  and  _265
REMARK   97  A    between atoms: _264  and  _267
REMARK   98  A    between atoms: _267  and  _268
REMARK   99  A    between atoms: _271  and  _273
REMARK  100  A    between atoms: _273  and  _274
REMARK  101  A    between atoms: _277  and  _279
REMARK  102  A    between atoms: _279  and  _280
REMARK  103  A    between atoms: _279  and  _282
REMARK  104  A    between atoms: _282  and  _283
REMARK  105  A    between atoms: _285  and  _287
REMARK  106  A    between atoms: _287  and  _288
REMARK  107  A    between atoms: _287  and  _290
REMARK  108  A    between atoms: _290  and  _291
REMARK  109  A    between atoms: _294  and  _296
REMARK  110  A    between atoms: _296  and  _297
REMARK  111  A    between atoms: _296  and  _299
REMARK  112  A    between atoms: _299  and  _300
REMARK  113  A    between atoms: _303  and  _305
REMARK  114  A    between atoms: _305  and  _306
REMARK  115  A    between atoms: _310  and  _311
REMARK  116  A    between atoms: _317  and  _318
REMARK  117  A    between atoms: _323  and  _325
REMARK  118  A    between atoms: _325  and  _326
REMARK  119  A    between atoms: _325  and  _328
REMARK  120  A    between atoms: _330  and  _332
REMARK  121  A    between atoms: _332  and  _333
REMARK  122  A    between atoms: _332  and  _335
REMARK  123  A    between atoms: _335  and  _336
REMARK  124  A    between atoms: _339  and  _341
REMARK  125  A    between atoms: _341  and  _342
REMARK  126  A    between atoms: _341  and  _344
REMARK  127  A    between atoms: _347  and  _349
REMARK  128  A    between atoms: _349  and  _350
REMARK  129  A    between atoms: _349  and  _352
REMARK  130  A    between atoms: _352  and  _353
REMARK  131  A    between atoms: _363  and  _365
REMARK  132  A    between atoms: _365  and  _366
REMARK  133  A    between atoms: _365  and  _368
REMARK  134  A    between atoms: _368  and  _369
REMARK  135  A    between atoms: _374  and  _376
REMARK  136  A    between atoms: _376  and  _377
REMARK  137  A    between atoms: _376  and  _379
REMARK  138  A    between atoms: _379  and  _380
REMARK  139  A    between atoms: _380  and  _381
REMARK  140  A    between atoms: _381  and  _382
REMARK                            x       y       z     vdW  Elec       q    Type
REMARK                         _______ _______ _______ _____ _____    ______ ____
ROOT
ATOM      1  CA  SER A   1      54.008  54.356  90.961  0.00  0.00    +0.163 C 
ENDROOT
BRANCH   1   2
ATOM      2  N   SER A   1      52.599  54.473  91.248  0.00  0.00    -0.237 NA
ATOM      3  H   SER A   1      52.006  55.080  90.646  0.00  0.00    +0.142 HD
ENDBRANCH   1   2
BRANCH   1   4
ATOM      4  CB  SER A   1      54.702  55.426  91.764  0.00  0.00    +0.227 C 
ATOM      5  OG  SER A   1      54.074  56.383  92.187  0.00  0.00    -0.287 OA
ENDBRANCH   1   4
BRANCH   1   6
ATOM      6  C   SER A   1      54.265  54.505  89.477  0.00  0.00    +0.162 C 
BRANCH   6   7
ATOM      7  O   SER A   1      53.817  55.771  89.058  0.00  0.00    -0.380 OA
ATOM      8  H   SER A   1      52.847  55.853  89.239  0.00  0.00    +0.211 HD
ENDBRANCH   6   7
ENDBRANCH   1   6
TORSDOF 4
REMARK  Name = ../refined-set-2016/4yha/4yha_pocket.pdb
REMARK  140 active torsions:
REMARK  status: ('A' for Active; 'I' for Inactive)
REMARK    1  A    between atoms: _1  and  _3
REMARK    2  A    between atoms: _3  and  _4
REMARK    3  A    between atoms: _3  and  _6
REMARK    4  A    between atoms: _6  and  _7
REMARK    5  A    between atoms: _17  and  _19
REMARK    6  A    between atoms: _19  and  _20
REMARK    7  A    between atoms: _19  and  _22
REMARK    8  A    between atoms: _22  and  _23
REMARK    9  A    between atoms: _28  and  _29
REMARK   10  A    between atoms: _31  and  _33
REMARK   11  A    between atoms: _33  and  _34
REMARK   12  A    between atoms: _33  and  _36
REMARK   13  A    between atoms: _36  and  _37
REMARK   14  A    between atoms: _40  and  _41
REMARK   15  A    between atoms: _46  and  _48
REMARK   16  A    between atoms: _48  and  _49
REMARK   17  A    between atoms: _48  and  _51
REMARK   18  A    between atoms: _51  and  _52
REMARK   19  A    between atoms: _55  and  _57
REMARK   20  A    between atoms: _57  and  _58
REMARK   21  A    between atoms: _57  and  _60
REMARK   22  A    between atoms: _60  and  _61
REMARK   23  A    between atoms: _66  and  _68
REMARK   24  A    between atoms: _68  and  _69
REMARK   25  A    between atoms: _68  and  _71
REMARK   26  A    between atoms: _71  and  _72
REMARK   27  A    between atoms: _75  and  _77
REMARK   28  A    between atoms: _77  and  _78
REMARK   29  A    between atoms: _77  and  _80
REMARK   30  A    between atoms: _80  and  _81
REMARK   31  A    between atoms: _81  and  _82
REMARK   32  A    between atoms: _82  and  _83
REMARK   33  A    between atoms: _83  and  _84
REMARK   34  A    between atoms: _88  and  _90
REMARK   35  A    between atoms: _90  and  _91
REMARK   36  A    between atoms: _90  and  _93
REMARK   37  A    between atoms: _93  and  _94
REMARK   38  A    between atoms: _96  and  _98
REMARK   39  A    between atoms: _98  and  _99
REMARK   40  A    between atoms: _98  and  _101
REMARK   41  A    between atoms: _101  and  _102
REMARK   42  A    between atoms: _105  and  _107
REMARK   43  A    between atoms: _107  and  _108
REMARK   44  A    between atoms: _107  and  _110
REMARK   45  A    between atoms: _110  and  _111
REMARK   46  A    between atoms: _116  and  _118
REMARK   47  A    between atoms: _118  and  _119
REMARK   48  A    between atoms: _118  and  _121
REMARK   49  A    between atoms: _124  and  _126
REMARK   50  A    between atoms: _137  and  _140
REMARK   51  A    between atoms: _140  and  _141
REMARK   52  A    between atoms: _149  and  _150
REMARK   53  A    between atoms: _158  and  _160
REMARK   54  A    between atoms: _160  and  _161
REMARK   55  A    between atoms: _160  and  _163
REMARK   56  A    between atoms: _163  and  _164
REMARK   57  A    between atoms: _164  and  _165
REMARK   58  A    between atoms: _168  and  _170
REMARK   59  A    between atoms: _170  and  _171
REMARK   60  A    between atoms: _170  and  _173
REMARK   61  A    between atoms: _173  and  _174
REMARK   62  A    between atoms: _180  and  _182
REMARK   63  A    between atoms: _182  and  _183
REMARK   64  A    between atoms: _182  and  _185
REMARK   65  A    between atoms: _185  and  _186
REMARK   66  A    between atoms: _188  and  _190
REMARK   67  A    between atoms: _190  and  _191
REMARK   68  A    between atoms: _194  and  _196
REMARK   69  A    between atoms: _196  and  _197
REMARK   70  A    between atoms: _196  and  _199
REMARK   71  A    between atoms: _199  and  _200
REMARK   72  A    between atoms: _201  and  ZN_391
REMARK   73  A    between atoms: _205  and  _207
REMARK   74  A    between atoms: _207  and  _208
REMARK   75  A    between atoms: _207  and  _210
REMARK   76  A    between atoms: _210  and  _211
REMARK   77  A    between atoms: _217  and  _219
REMARK   78  A    between atoms: _219  and  _220
REMARK   79  A    between atoms: _219  and  _222
REMARK   80  A    between atoms: _225  and  _227
REMARK   81  A    between atoms: _227  and  _228
REMARK   82  A    between atoms: _227  and  _230
REMARK   83  A    between atoms: _230  and  _231
REMARK   84  A    between atoms: _236  and  _238
REMARK   85  A    between atoms: _238  and  _239
REMARK   86  A    between atoms: _238  and  _241
REMARK   87  A    between atoms: _241  and  _242
REMARK   88  A    between atoms: _245  and  _247
REMARK   89  A    between atoms: _247  and  _248
REMARK   90  A    between atoms: _247  and  _250
REMARK   91  A    between atoms: _250  and  _251
REMARK   92  A    between atoms: _254  and  _256
REMARK   93  A    between atoms: _256  and  _257
REMARK   94  A    between atoms: _256  and  _259
REMARK   95  A    between atoms: _262  and  _264
REMARK   96  A    between atoms: _264  and  _265
REMARK   97  A    between atoms: _264  and  _267
REMARK   98  A    between atoms: _267  and  _268
REMARK   99  A    between atoms: _271  and  _273
REMARK  100  A    between atoms: _273  and  _274
REMARK  101  A    between atoms: _277  and  _279
REMARK  102  A    between atoms: _279  and  _280
REMARK  103  A    between atoms: _279  and  _282
REMARK  104  A    between atoms: _282  and  _283
REMARK  105  A    between atoms: _285  and  _287
REMARK  106  A    between atoms: _287  and  _288
REMARK  107  A    between atoms: _287  and  _290
REMARK  108  A    between atoms: _290  and  _291
REMARK  109  A    between atoms: _294  and  _296
REMARK  110  A    between atoms: _296  and  _297
REMARK  111  A    between atoms: _296  and  _299
REMARK  112  A    between atoms: _299  and  _300
REMARK  113  A    between atoms: _303  and  _305
REMARK  114  A    between atoms: _305  and  _306
REMARK  115  A    between atoms: _310  and  _311
REMARK  116  A    between atoms: _317  and  _318
REMARK  117  A    between atoms: _323  and  _325
REMARK  118  A    between atoms: _325  and  _326
REMARK  119  A    between atoms: _325  and  _328
REMARK  120  A    between atoms: _330  and  _332
REMARK  121  A    between atoms: _332  and  _333
REMARK  122  A    between atoms: _332  and  _335
REMARK  123  A    between atoms: _335  and  _336
REMARK  124  A    between atoms: _339  and  _341
REMARK  125  A    between atoms: _341  and  _342
REMARK  126  A    between atoms: _341  and  _344
REMARK  127  A    between atoms: _347  and  _349
REMARK  128  A    between atoms: _349  and  _350
REMARK  129  A    between atoms: _349  and  _352
REMARK  130  A    between atoms: _352  and  _353
REMARK  131  A    between atoms: _363  and  _365
REMARK  132  A    between atoms: _365  and  _366
REMARK  133  A    between atoms: _365  and  _368
REMARK  134  A    between atoms: _368  and  _369
REMARK  135  A    between atoms: _374  and  _376
REMARK  136  A    between atoms: _376  and  _377
REMARK  137  A    between atoms: _376  and  _379
REMARK  138  A    between atoms: _379  and  _380
REMARK  139  A    between atoms: _380  and  _381
REMARK  140  A    between atoms: _381  and  _382
REMARK                            x       y       z     vdW  Elec       q    Type
REMARK                         _______ _______ _______ _____ _____    ______ ____
ROOT
ATOM      1  C   UNK A   4      48.973  48.021  93.337  0.00  0.00    +0.000 C 
ATOM      2  C   UNK A   4      48.149  47.065  94.142  0.00  0.00    +0.000 C 
ATOM      3  O   UNK A   4      48.624  46.535  95.127  0.00  0.00    +0.000 OA
ATOM      4  N   VAL A   5      46.928  46.820  93.692  0.00  0.00    +0.000 N 
ATOM      5  CA  VAL A   5      45.951  46.134  94.506  0.00  0.00    +0.000 C 
ATOM      6  C   VAL A   5      45.324  44.929  93.881  0.00  0.00    +0.000 C 
ATOM      7  N   UNK A   6      44.950  43.987  94.733  0.00  0.00    +0.000 N 
ATOM      8  H   UNK A   6      45.196  44.088  95.738  0.00  0.00    +0.000 HD
ATOM      9  C   UNK A   6      44.208  42.820  94.304  0.00  0.00    +0.000 C 
ATOM     10  C   UNK A   6      45.093  41.583  94.301  0.00  0.00    +0.000 C 
ATOM     11  C   UNK A   6      46.248  41.674  93.361  0.00  0.00    +0.000 A 
ATOM     12  C   UNK A   6      47.453  42.273  93.489  0.00  0.00    +0.000 A 
ATOM     13  N   UNK A   6      48.146  42.036  92.328  0.00  0.00    +0.000 N 
ATOM     14 ZN   UNK A   6      49.940  42.256  92.410  0.00  0.00    +0.000 Zn
ATOM     15  N   UNK A   4      50.737  44.112  92.007  0.00  0.00    +0.000 N 
ATOM     16  C   UNK A   4      49.608  44.890  91.997  0.00  0.00    +0.000 A 
ATOM     17  C   UNK A   4      50.013  46.180  91.969  0.00  0.00    +0.000 A 
ATOM     18  N   UNK A   4      51.389  46.150  91.946  0.00  0.00    +0.000 NA
ATOM     19  C   UNK A   4      51.799  44.896  91.971  0.00  0.00    +0.000 A 
ATOM     20  C   UNK A   6      47.386  41.335  91.509  0.00  0.00    +0.000 A 
ATOM     21  N   UNK A   6      46.235  41.099  92.111  0.00  0.00    +0.000 NA
ATOM     22  O   VAL A   5      45.172  44.851  92.673  0.00  0.00    +0.000 OA
ATOM     23  H   VAL A   5      46.667  47.128  92.733  0.00  0.00    +0.000 HD
ATOM     24  C   UNK A   4      49.237  47.450  91.948  0.00  0.00    +0.000 C 
ENDROOT
BRANCH  14  25
ATOM     25  N   UNK A   6      50.550  41.903  94.225  0.00  0.00    +0.000 N 
ATOM     26  C   UNK A   6      51.023  42.554  95.337  0.00  0.00    +0.000 A 
ATOM     27  C   UNK A   6      50.577  41.855  96.403  0.00  0.00    +0.000 A 
ATOM     28  N   UNK A   6      49.856  40.797  95.918  0.00  0.00    +0.000 NA
ATOM     29  C   UNK A   6      49.870  40.837  94.601  0.00  0.00    +0.000 A 
BRANCH  26  30
ATOM     30  C   UNK A   6      51.824  43.804  95.258  0.00  0.00    +0.000 C 
BRANCH  30  31
ATOM     31  C   UNK A   6      51.933  44.531  96.581  0.00  0.00    +0.000 C 
BRANCH  31  32
ATOM     32  C   UNK A   6      52.965  45.612  96.452  0.00  0.00    +0.000 C 
ATOM     33  N   UNK A   4      54.045  45.489  97.199  0.00  0.00    +0.000 N 
ATOM     34  H   UNK A   4      54.133  44.690  97.859  0.00  0.00    +0.000 HD
ATOM     35  O   UNK A   6      52.810  46.522  95.657  0.00  0.00    +0.000 OA
BRANCH  33  36
ATOM     36  C   UNK A   4      55.105  46.464  97.101  0.00  0.00    +0.000 C 
BRANCH  36  37
ATOM     37  C   UNK A   4      56.156  45.913  96.188  0.00  0.00    +0.000 C 
ATOM     38  O   UNK A   4      56.966  45.086  96.579  0.00  0.00    +0.000 OA
ATOM     39  N   VAL A   5      56.149  46.422  94.967  0.00  0.00    +0.000 N 
ATOM     40  H   VAL A   5      55.537  47.238  94.766  0.00  0.00    +0.000 HD
BRANCH  39  41
ATOM     41  CA  VAL A   5      56.961  45.883  93.909  0.00  0.00    +0.000 C 
BRANCH  41  42
ATOM     42  C   VAL A   5      58.283  46.601  93.834  0.00  0.00    +0.000 C 
ATOM     43  N   UNK A   6      59.351  45.824  93.935  0.00  0.00    +0.000 N 
ATOM     44  H   UNK A   6      59.211  44.799  94.038  0.00  0.00    +0.000 HD
ATOM     45  O   VAL A   5      58.333  47.817  93.718  0.00  0.00    +0.000 OA
BRANCH  43  46
ATOM     46  C   UNK A   6      60.705  46.339  93.908  0.00  0.00    +0.000 C 
BRANCH  46  47
ATOM     47  C   UNK A   6      61.538  45.724  92.812  0.00  0.00    +0.000 C 
ATOM     48  O   UNK A   6      61.278  44.619  92.367  0.00  0.00    +0.000 OA
ENDBRANCH  46  47
BRANCH  46  49
ATOM     49  C   UNK A   6      61.408  46.109  95.236  0.00  0.00    +0.000 C 
BRANCH  49  50
ATOM     50  C   UNK A   6      60.649  46.602  96.419  0.00  0.00    +0.000 A 
ATOM     51  C   UNK A   6      60.881  47.644  97.245  0.00  0.00    +0.000 A 
ATOM     52  N   UNK A   6      59.872  47.657  98.168  0.00  0.00    +0.000 NA
ATOM     53  C   UNK A   6      59.053  46.652  97.927  0.00  0.00    +0.000 A 
ATOM     54  N   UNK A   6      59.502  45.996  96.875  0.00  0.00    +0.000 NA
ENDBRANCH  49  50
ENDBRANCH  46  49
ENDBRANCH  43  46
ENDBRANCH  41  42
BRANCH  41  55
ATOM     55  CB  VAL A   5      56.262  45.989  92.594  0.00  0.00    +0.000 C 
ATOM     56  CG2 VAL A   5      54.971  45.227  92.657  0.00  0.00    +0.000 C 
ATOM     57  CG1 VAL A   5      57.142  45.419  91.519  0.00  0.00    +0.000 C 
ENDBRANCH  41  55
ENDBRANCH  39  41
ENDBRANCH  36  37
BRANCH  36  58
ATOM     58  C   UNK A   4      55.676  46.789  98.468  0.00  0.00    +0.000 C 
BRANCH  58  59
ATOM     59  C   UNK A   4      54.780  47.653  99.294  0.00  0.00    +0.000 A 
ATOM     60  C   UNK A   4      55.198  48.911  99.699  0.00  0.00    +0.000 A 
ATOM     61  C   UNK A   4      54.378  49.722 100.465  0.00  0.00    +0.000 A 
ATOM     62  C   UNK A   4      53.124  49.280 100.835  0.00  0.00    +0.000 A 
ATOM     63  C   UNK A   4      52.692  48.027 100.440  0.00  0.00    +0.000 A 
ATOM     64  C   UNK A   4      53.523  47.215  99.677  0.00  0.00    +0.000 A 
ENDBRANCH  58  59
ENDBRANCH  36  58
ENDBRANCH  33  36
ENDBRANCH  31  32
BRANCH  31  65
ATOM     65  N   UNK A   6      50.642  45.070  96.965  0.00  0.00    +0.000 N 
ATOM     66  C   ALA A   2      50.055  44.713  98.104  0.00  0.00    +0.000 C 
ATOM     67  O   ALA A   2      50.573  43.954  98.920  0.00  0.00    +0.000 OA
ATOM     68  H   UNK A   6      50.166  45.749  96.337  0.00  0.00    +0.000 HD
BRANCH  66  69
ATOM     69  CA  ALA A   2      48.689  45.321  98.377  0.00  0.00    +0.000 C 
ATOM     70  CB  ALA A   2      48.819  46.509  99.268  0.00  0.00    +0.000 C 
BRANCH  69  71
ATOM     71  N   ALA A   2      47.808  44.337  98.979  0.00  0.00    +0.000 N 
ATOM     72  H   ALA A   2      48.136  43.802  99.808  0.00  0.00    +0.000 HD
ATOM     73  C   SER A   1      46.594  44.104  98.497  0.00  0.00    +0.000 C 
ATOM     74  O   SER A   1      46.113  44.742  97.567  0.00  0.00    +0.000 OA
BRANCH  73  75
ATOM     75  CA  SER A   1      45.831  42.958  99.150  0.00  0.00    +0.000 C 
BRANCH  75  76
ATOM     76  N   SER A   1      44.410  42.941  98.834  0.00  0.00    +0.000 NA
ATOM     77  H   SER A   1      44.087  43.183  97.876  0.00  0.00    +0.000 HD
ENDBRANCH  75  76
BRANCH  75  78
ATOM     78  CB  SER A   1      46.468  41.642  98.744  0.00  0.00    +0.000 C 
BRANCH  78  79
ATOM     79  OG  SER A   1      46.516  41.518  97.338  0.00  0.00    +0.000 OA
ATOM     80  H   SER A   1      46.935  40.654  97.098  0.00  0.00    +0.000 HD
ENDBRANCH  78  79
ENDBRANCH  75  78
ENDBRANCH  73  75
ENDBRANCH  69  71
ENDBRANCH  66  69
ENDBRANCH  31  65
ENDBRANCH  30  31
ENDBRANCH  26  30
ENDBRANCH  14  25
BRANCH   1  82
ATOM     81  C   UNK A   3      50.691  49.512  94.130  0.00  0.00    +0.000 C 
ATOM     82  N   UNK A   4      50.211  48.278  94.049  0.00  0.00    +0.000 N 
ATOM     83  H   UNK A   4      50.724  47.492  94.497  0.00  0.00    +0.000 HD
ATOM     84  O   UNK A   3      50.126  50.470  93.630  0.00  0.00    +0.000 OA
BRANCH  81  85
ATOM     85  C   UNK A   3      52.006  49.704  94.867  0.00  0.00    +0.000 C 
BRANCH  85  88
ATOM     86  C   ALA A   2      54.067  49.957  93.602  0.00  0.00    +0.000 C 
ATOM     87  O   ALA A   2      54.524  48.902  94.011  0.00  0.00    +0.000 OA
ATOM     88  N   UNK A   3      52.906  50.448  94.000  0.00  0.00    +0.000 N 
ATOM     89  H   UNK A   3      52.627  51.398  93.683  0.00  0.00    +0.000 HD
BRANCH  86  90
ATOM     90  CA  ALA A   2      54.800  50.766  92.565  0.00  0.00    +0.000 C 
BRANCH  90  92
ATOM     91  C   SER A   1      57.079  51.206  91.902  0.00  0.00    +0.000 C 
ATOM     92  N   ALA A   2      56.199  50.399  92.475  0.00  0.00    +0.000 N 
ATOM     93  H   ALA A   2      56.516  49.489  92.866  0.00  0.00    +0.000 HD
ATOM     94  O   SER A   1      56.780  52.308  91.465  0.00  0.00    +0.000 OA
BRANCH  91  95
ATOM     95  CA  SER A   1      58.492  50.676  91.797  0.00  0.00    +0.000 C 
BRANCH  95  96
ATOM     96  N   SER A   1      58.942  50.216  93.099  0.00  0.00    +0.000 NA
ATOM     97  H   SER A   1      58.766  49.232  93.387  0.00  0.00    +0.000 HD
ENDBRANCH  95  96
BRANCH  95  98
ATOM     98  CB  SER A   1      58.516  49.539  90.783  0.00  0.00    +0.000 C 
BRANCH  98  99
ATOM     99  CG  SER A   1      57.976  49.953  89.436  0.00  0.00    +0.000 C 
ATOM    100  OD2 SER A   1      56.819  49.590  89.127  0.00  0.00    +0.000 OA
ATOM    101  OD1 SER A   1      58.682  50.692  88.716  0.00  0.00    +0.000 OA
ENDBRANCH  98  99
ENDBRANCH  95  98
ENDBRANCH  91  95
ENDBRANCH  90  92
BRANCH  90 102
ATOM    102  CB  ALA A   2      54.104  50.578  91.219  0.00  0.00    +0.000 C 
BRANCH 102 103
ATOM    103  CG  ALA A   2      53.864  49.121  90.887  0.00  0.00    +0.000 C 
ATOM    104  OD1 ALA A   2      52.841  48.553  91.256  0.00  0.00    +0.000 OA
ATOM    105  ND2 ALA A   2      54.791  48.519  90.153  0.00  0.00    +0.000 N 
ATOM    106 HD21 ALA A   2      54.665  47.527  89.868  0.00  0.00    +0.000 HD
ATOM    107 HD22 ALA A   2      55.643  49.039  89.863  0.00  0.00    +0.000 HD
ENDBRANCH 102 103
ENDBRANCH  90 102
ENDBRANCH  86  90
ENDBRANCH  85  88
BRANCH  85 108
ATOM    108  C   UNK A   3      51.755  50.430  96.210  0.00  0.00    +0.000 C 
ATOM    109  C   UNK A   3      50.728  49.681  97.040  0.00  0.00    +0.000 C 
ATOM    110  C   UNK A   3      53.051  50.587  96.988  0.00  0.00    +0.000 C 
ENDBRANCH  85 108
ENDBRANCH  81  85
ENDBRANCH   1  82
BRANCH   9 111
ATOM    111  C   UNK A   6      43.032  42.623  95.237  0.00  0.00    +0.000 C 
ATOM    112  O   UNK A   6      43.176  42.753  96.452  0.00  0.00    +0.000 OA
ENDBRANCH   9 111
BRANCH   5 113
ATOM    113  CB  VAL A   5      44.840  47.095  94.874  0.00  0.00    +0.000 C 
BRANCH 113 114
ATOM    114  CG  VAL A   5      45.300  48.221  95.706  0.00  0.00    +0.000 A 
ATOM    115  CD2 VAL A   5      45.667  48.012  97.022  0.00  0.00    +0.000 A 
ATOM    116  CE2 VAL A   5      46.115  49.050  97.792  0.00  0.00    +0.000 A 
ATOM    117  CZ  VAL A   5      46.200  50.301  97.254  0.00  0.00    +0.000 A 
ATOM    118  CE1 VAL A   5      45.843  50.514  95.947  0.00  0.00    +0.000 A 
ATOM    119  CD1 VAL A   5      45.402  49.482  95.179  0.00  0.00    +0.000 A 
ENDBRANCH 113 114
ENDBRANCH   5 113
TORSDOF 37
REMARK  Name = ../refined-set-2016/4yha/4yha_pocket.pdb
REMARK  140 active torsions:
REMARK  status: ('A' for Active; 'I' for Inactive)
REMARK    1  A    between atoms: _1  and  _3
REMARK    2  A    between atoms: _3  and  _4
REMARK    3  A    between atoms: _3  and  _6
REMARK    4  A    between atoms: _6  and  _7
REMARK    5  A    between atoms: _17  and  _19
REMARK    6  A    between atoms: _19  and  _20
REMARK    7  A    between atoms: _19  and  _22
REMARK    8  A    between atoms: _22  and  _23
REMARK    9  A    between atoms: _28  and  _29
REMARK   10  A    between atoms: _31  and  _33
REMARK   11  A    between atoms: _33  and  _34
REMARK   12  A    between atoms: _33  and  _36
REMARK   13  A    between atoms: _36  and  _37
REMARK   14  A    between atoms: _40  and  _41
REMARK   15  A    between atoms: _46  and  _48
REMARK   16  A    between atoms: _48  and  _49
REMARK   17  A    between atoms: _48  and  _51
REMARK   18  A    between atoms: _51  and  _52
REMARK   19  A    between atoms: _55  and  _57
REMARK   20  A    between atoms: _57  and  _58
REMARK   21  A    between atoms: _57  and  _60
REMARK   22  A    between atoms: _60  and  _61
REMARK   23  A    between atoms: _66  and  _68
REMARK   24  A    between atoms: _68  and  _69
REMARK   25  A    between atoms: _68  and  _71
REMARK   26  A    between atoms: _71  and  _72
REMARK   27  A    between atoms: _75  and  _77
REMARK   28  A    between atoms: _77  and  _78
REMARK   29  A    between atoms: _77  and  _80
REMARK   30  A    between atoms: _80  and  _81
REMARK   31  A    between atoms: _81  and  _82
REMARK   32  A    between atoms: _82  and  _83
REMARK   33  A    between atoms: _83  and  _84
REMARK   34  A    between atoms: _88  and  _90
REMARK   35  A    between atoms: _90  and  _91
REMARK   36  A    between atoms: _90  and  _93
REMARK   37  A    between atoms: _93  and  _94
REMARK   38  A    between atoms: _96  and  _98
REMARK   39  A    between atoms: _98  and  _99
REMARK   40  A    between atoms: _98  and  _101
REMARK   41  A    between atoms: _101  and  _102
REMARK   42  A    between atoms: _105  and  _107
REMARK   43  A    between atoms: _107  and  _108
REMARK   44  A    between atoms: _107  and  _110
REMARK   45  A    between atoms: _110  and  _111
REMARK   46  A    between atoms: _116  and  _118
REMARK   47  A    between atoms: _118  and  _119
REMARK   48  A    between atoms: _118  and  _121
REMARK   49  A    between atoms: _124  and  _126
REMARK   50  A    between atoms: _137  and  _140
REMARK   51  A    between atoms: _140  and  _141
REMARK   52  A    between atoms: _149  and  _150
REMARK   53  A    between atoms: _158  and  _160
REMARK   54  A    between atoms: _160  and  _161
REMARK   55  A    between atoms: _160  and  _163
REMARK   56  A    between atoms: _163  and  _164
REMARK   57  A    between atoms: _164  and  _165
REMARK   58  A    between atoms: _168  and  _170
REMARK   59  A    between atoms: _170  and  _171
REMARK   60  A    between atoms: _170  and  _173
REMARK   61  A    between atoms: _173  and  _174
REMARK   62  A    between atoms: _180  and  _182
REMARK   63  A    between atoms: _182  and  _183
REMARK   64  A    between atoms: _182  and  _185
REMARK   65  A    between atoms: _185  and  _186
REMARK   66  A    between atoms: _188  and  _190
REMARK   67  A    between atoms: _190  and  _191
REMARK   68  A    between atoms: _194  and  _196
REMARK   69  A    between atoms: _196  and  _197
REMARK   70  A    between atoms: _196  and  _199
REMARK   71  A    between atoms: _199  and  _200
REMARK   72  A    between atoms: _201  and  ZN_391
REMARK   73  A    between atoms: _205  and  _207
REMARK   74  A    between atoms: _207  and  _208
REMARK   75  A    between atoms: _207  and  _210
REMARK   76  A    between atoms: _210  and  _211
REMARK   77  A    between atoms: _217  and  _219
REMARK   78  A    between atoms: _219  and  _220
REMARK   79  A    between atoms: _219  and  _222
REMARK   80  A    between atoms: _225  and  _227
REMARK   81  A    between atoms: _227  and  _228
REMARK   82  A    between atoms: _227  and  _230
REMARK   83  A    between atoms: _230  and  _231
REMARK   84  A    between atoms: _236  and  _238
REMARK   85  A    between atoms: _238  and  _239
REMARK   86  A    between atoms: _238  and  _241
REMARK   87  A    between atoms: _241  and  _242
REMARK   88  A    between atoms: _245  and  _247
REMARK   89  A    between atoms: _247  and  _248
REMARK   90  A    between atoms: _247  and  _250
REMARK   91  A    between atoms: _250  and  _251
REMARK   92  A    between atoms: _254  and  _256
REMARK   93  A    between atoms: _256  and  _257
REMARK   94  A    between atoms: _256  and  _259
REMARK   95  A    between atoms: _262  and  _264
REMARK   96  A    between atoms: _264  and  _265
REMARK   97  A    between atoms: _264  and  _267
REMARK   98  A    between atoms: _267  and  _268
REMARK   99  A    between atoms: _271  and  _273
REMARK  100  A    between atoms: _273  and  _274
REMARK  101  A    between atoms: _277  and  _279
REMARK  102  A    between atoms: _279  and  _280
REMARK  103  A    between atoms: _279  and  _282
REMARK  104  A    between atoms: _282  and  _283
REMARK  105  A    between atoms: _285  and  _287
REMARK  106  A    between atoms: _287  and  _288
REMARK  107  A    between atoms: _287  and  _290
REMARK  108  A    between atoms: _290  and  _291
REMARK  109  A    between atoms: _294  and  _296
REMARK  110  A    between atoms: _296  and  _297
REMARK  111  A    between atoms: _296  and  _299
REMARK  112  A    between atoms: _299  and  _300
REMARK  113  A    between atoms: _303  and  _305
REMARK  114  A    between atoms: _305  and  _306
REMARK  115  A    between atoms: _310  and  _311
REMARK  116  A    between atoms: _317  and  _318
REMARK  117  A    between atoms: _323  and  _325
REMARK  118  A    between atoms: _325  and  _326
REMARK  119  A    between atoms: _325  and  _328
REMARK  120  A    between atoms: _330  and  _332
REMARK  121  A    between atoms: _332  and  _333
REMARK  122  A    between atoms: _332  and  _335
REMARK  123  A    between atoms: _335  and  _336
REMARK  124  A    between atoms: _339  and  _341
REMARK  125  A    between atoms: _341  and  _342
REMARK  126  A    between atoms: _341  and  _344
REMARK  127  A    between atoms: _347  and  _349
REMARK  128  A    between atoms: _349  and  _350
REMARK  129  A    between atoms: _349  and  _352
REMARK  130  A    between atoms: _352  and  _353
REMARK  131  A    between atoms: _363  and  _365
REMARK  132  A    between atoms: _365  and  _366
REMARK  133  A    between atoms: _365  and  _368
REMARK  134  A    between atoms: _368  and  _369
REMARK  135  A    between atoms: _374  and  _376
REMARK  136  A    between atoms: _376  and  _377
REMARK  137  A    between atoms: _376  and  _379
REMARK  138  A    between atoms: _379  and  _380
REMARK  139  A    between atoms: _380  and  _381
REMARK  140  A    between atoms: _381  and  _382
REMARK                            x       y       z     vdW  Elec       q    Type
REMARK                         _______ _______ _______ _____ _____    ______ ____
ROOT
ATOM      1  C   GLU A   1      46.334  35.332  96.625  0.00  0.00    +0.238 C 
ATOM      2  N   PHE A   2      47.299  35.605  97.503  0.00  0.00    -0.298 N 
ATOM      3  H   PHE A   2      47.627  36.584  97.630  0.00  0.00    +0.150 HD
ATOM      4  O   GLU A   1      45.985  34.183  96.375  0.00  0.00    -0.274 OA
ENDROOT
BRANCH   1   5
ATOM      5  CA  GLU A   1      45.664  36.486  95.881  0.00  0.00    +0.145 C 
BRANCH   5   6
ATOM      6  N   GLU A   1      45.331  37.613  96.738  0.00  0.00    -0.238 NA
ATOM      7  H   GLU A   1      45.986  38.418  96.812  0.00  0.00    +0.142 HD
ENDBRANCH   5   6
BRANCH   5   8
ATOM      8  CB  GLU A   1      46.517  36.935  94.678  0.00  0.00    +0.038 C 
BRANCH   8   9
ATOM      9  CG  GLU A   1      45.677  37.580  93.544  0.00  0.00    +0.116 C 
BRANCH   9  10
ATOM     10  CD  GLU A   1      46.461  37.923  92.267  0.00  0.00    +0.365 C 
ATOM     11  OE2 GLU A   1      47.547  38.510  92.358  0.00  0.00    -0.246 OA
ATOM     12  OE1 GLU A   1      45.969  37.630  91.161  0.00  0.00    -0.246 OA
ENDBRANCH   9  10
ENDBRANCH   8   9
ENDBRANCH   5   8
ENDBRANCH   1   5
BRANCH   2  13
ATOM     13  CA  PHE A   2      47.899  34.517  98.292  0.00  0.00    +0.141 C 
BRANCH  13  14
ATOM     14  C   PHE A   2      46.978  34.117  99.418  0.00  0.00    +0.227 C 
ATOM     15  O   PHE A   2      46.267  34.942  99.978  0.00  0.00    -0.286 OA
ENDBRANCH  13  14
BRANCH  13  16
ATOM     16  CB  PHE A   2      49.268  34.873  98.866  0.00  0.00    +0.054 C 
BRANCH  16  17
ATOM     17  CG  PHE A   2      50.405  34.675  97.903  0.00  0.00    -0.020 A 
ATOM     18  CD2 PHE A   2      50.896  33.408  97.655  0.00  0.00    -0.004 A 
ATOM     19  CE2 PHE A   2      51.944  33.205  96.786  0.00  0.00    -0.000 A 
ATOM     20  CZ  PHE A   2      52.524  34.267  96.157  0.00  0.00    -0.000 A 
ATOM     21  CE1 PHE A   2      52.061  35.545  96.399  0.00  0.00    -0.000 A 
ATOM     22  CD1 PHE A   2      51.006  35.748  97.275  0.00  0.00    -0.004 A 
ENDBRANCH  16  17
ENDBRANCH  13  16
ENDBRANCH   2  13
TORSDOF 9
REMARK  Name = ../refined-set-2016/4yha/4yha_pocket.pdb
REMARK  140 active torsions:
REMARK  status: ('A' for Active; 'I' for Inactive)
REMARK    1  A    between atoms: _1  and  _3
REMARK    2  A    between atoms: _3  and  _4
REMARK    3  A    between atoms: _3  and  _6
REMARK    4  A    between atoms: _6  and  _7
REMARK    5  A    between atoms: _17  and  _19
REMARK    6  A    between atoms: _19  and  _20
REMARK    7  A    between atoms: _19  and  _22
REMARK    8  A    between atoms: _22  and  _23
REMARK    9  A    between atoms: _28  and  _29
REMARK   10  A    between atoms: _31  and  _33
REMARK   11  A    between atoms: _33  and  _34
REMARK   12  A    between atoms: _33  and  _36
REMARK   13  A    between atoms: _36  and  _37
REMARK   14  A    between atoms: _40  and  _41
REMARK   15  A    between atoms: _46  and  _48
REMARK   16  A    between atoms: _48  and  _49
REMARK   17  A    between atoms: _48  and  _51
REMARK   18  A    between atoms: _51  and  _52
REMARK   19  A    between atoms: _55  and  _57
REMARK   20  A    between atoms: _57  and  _58
REMARK   21  A    between atoms: _57  and  _60
REMARK   22  A    between atoms: _60  and  _61
REMARK   23  A    between atoms: _66  and  _68
REMARK   24  A    between atoms: _68  and  _69
REMARK   25  A    between atoms: _68  and  _71
REMARK   26  A    between atoms: _71  and  _72
REMARK   27  A    between atoms: _75  and  _77
REMARK   28  A    between atoms: _77  and  _78
REMARK   29  A    between atoms: _77  and  _80
REMARK   30  A    between atoms: _80  and  _81
REMARK   31  A    between atoms: _81  and  _82
REMARK   32  A    between atoms: _82  and  _83
REMARK   33  A    between atoms: _83  and  _84
REMARK   34  A    between atoms: _88  and  _90
REMARK   35  A    between atoms: _90  and  _91
REMARK   36  A    between atoms: _90  and  _93
REMARK   37  A    between atoms: _93  and  _94
REMARK   38  A    between atoms: _96  and  _98
REMARK   39  A    between atoms: _98  and  _99
REMARK   40  A    between atoms: _98  and  _101
REMARK   41  A    between atoms: _101  and  _102
REMARK   42  A    between atoms: _105  and  _107
REMARK   43  A    between atoms: _107  and  _108
REMARK   44  A    between atoms: _107  and  _110
REMARK   45  A    between atoms: _110  and  _111
REMARK   46  A    between atoms: _116  and  _118
REMARK   47  A    between atoms: _118  and  _119
REMARK   48  A    between atoms: _118  and  _121
REMARK   49  A    between atoms: _124  and  _126
REMARK   50  A    between atoms: _137  and  _140
REMARK   51  A    between atoms: _140  and  _141
REMARK   52  A    between atoms: _149  and  _150
REMARK   53  A    between atoms: _158  and  _160
REMARK   54  A    between atoms: _160  and  _161
REMARK   55  A    between atoms: _160  and  _163
REMARK   56  A    between atoms: _163  and  _164
REMARK   57  A    between atoms: _164  and  _165
REMARK   58  A    between atoms: _168  and  _170
REMARK   59  A    between atoms: _170  and  _171
REMARK   60  A    between atoms: _170  and  _173
REMARK   61  A    between atoms: _173  and  _174
REMARK   62  A    between atoms: _180  and  _182
REMARK   63  A    between atoms: _182  and  _183
REMARK   64  A    between atoms: _182  and  _185
REMARK   65  A    between atoms: _185  and  _186
REMARK   66  A    between atoms: _188  and  _190
REMARK   67  A    between atoms: _190  and  _191
REMARK   68  A    between atoms: _194  and  _196
REMARK   69  A    between atoms: _196  and  _197
REMARK   70  A    between atoms: _196  and  _199
REMARK   71  A    between atoms: _199  and  _200
REMARK   72  A    between atoms: _201  and  ZN_391
REMARK   73  A    between atoms: _205  and  _207
REMARK   74  A    between atoms: _207  and  _208
REMARK   75  A    between atoms: _207  and  _210
REMARK   76  A    between atoms: _210  and  _211
REMARK   77  A    between atoms: _217  and  _219
REMARK   78  A    between atoms: _219  and  _220
REMARK   79  A    between atoms: _219  and  _222
REMARK   80  A    between atoms: _225  and  _227
REMARK   81  A    between atoms: _227  and  _228
REMARK   82  A    between atoms: _227  and  _230
REMARK   83  A    between atoms: _230  and  _231
REMARK   84  A    between atoms: _236  and  _238
REMARK   85  A    between atoms: _238  and  _239
REMARK   86  A    between atoms: _238  and  _241
REMARK   87  A    between atoms: _241  and  _242
REMARK   88  A    between atoms: _245  and  _247
REMARK   89  A    between atoms: _247  and  _248
REMARK   90  A    between atoms: _247  and  _250
REMARK   91  A    between atoms: _250  and  _251
REMARK   92  A    between atoms: _254  and  _256
REMARK   93  A    between atoms: _256  and  _257
REMARK   94  A    between atoms: _256  and  _259
REMARK   95  A    between atoms: _262  and  _264
REMARK   96  A    between atoms: _264  and  _265
REMARK   97  A    between atoms: _264  and  _267
REMARK   98  A    between atoms: _267  and  _268
REMARK   99  A    between atoms: _271  and  _273
REMARK  100  A    between atoms: _273  and  _274
REMARK  101  A    between atoms: _277  and  _279
REMARK  102  A    between atoms: _279  and  _280
REMARK  103  A    between atoms: _279  and  _282
REMARK  104  A    between atoms: _282  and  _283
REMARK  105  A    between atoms: _285  and  _287
REMARK  106  A    between atoms: _287  and  _288
REMARK  107  A    between atoms: _287  and  _290
REMARK  108  A    between atoms: _290  and  _291
REMARK  109  A    between atoms: _294  and  _296
REMARK  110  A    between atoms: _296  and  _297
REMARK  111  A    between atoms: _296  and  _299
REMARK  112  A    between atoms: _299  and  _300
REMARK  113  A    between atoms: _303  and  _305
REMARK  114  A    between atoms: _305  and  _306
REMARK  115  A    between atoms: _310  and  _311
REMARK  116  A    between atoms: _317  and  _318
REMARK  117  A    between atoms: _323  and  _325
REMARK  118  A    between atoms: _325  and  _326
REMARK  119  A    between atoms: _325  and  _328
REMARK  120  A    between atoms: _330  and  _332
REMARK  121  A    between atoms: _332  and  _333
REMARK  122  A    between atoms: _332  and  _335
REMARK  123  A    between atoms: _335  and  _336
REMARK  124  A    between atoms: _339  and  _341
REMARK  125  A    between atoms: _341  and  _342
REMARK  126  A    between atoms: _341  and  _344
REMARK  127  A    between atoms: _347  and  _349
REMARK  128  A    between atoms: _349  and  _350
REMARK  129  A    between atoms: _349  and  _352
REMARK  130  A    between atoms: _352  and  _353
REMARK  131  A    between atoms: _363  and  _365
REMARK  132  A    between atoms: _365  and  _366
REMARK  133  A    between atoms: _365  and  _368
REMARK  134  A    between atoms: _368  and  _369
REMARK  135  A    between atoms: _374  and  _376
REMARK  136  A    between atoms: _376  and  _377
REMARK  137  A    between atoms: _376  and  _379
REMARK  138  A    between atoms: _379  and  _380
REMARK  139  A    between atoms: _380  and  _381
REMARK  140  A    between atoms: _381  and  _382
REMARK                            x       y       z     vdW  Elec       q    Type
REMARK                         _______ _______ _______ _____ _____    ______ ____
ROOT
ATOM      1  CA  VAL A   3      57.260  41.839  95.894  0.00  0.00    +0.149 C 
ENDROOT
BRANCH   1   3
ATOM      2  C   LEU A   2      59.564  42.170  95.409  0.00  0.00    +0.241 C 
ATOM      3  N   VAL A   3      58.593  41.325  95.701  0.00  0.00    -0.297 N 
ATOM      4  H   VAL A   3      58.786  40.307  95.790  0.00  0.00    +0.150 HD
ATOM      5  O   LEU A   2      59.373  43.372  95.265  0.00  0.00    -0.273 OA
BRANCH   2   6
ATOM      6  CA  LEU A   2      60.942  41.599  95.261  0.00  0.00    +0.149 C 
BRANCH   6   8
ATOM      7  C   LEU A   1      61.952  40.969  93.165  0.00  0.00    +0.238 C 
ATOM      8  N   LEU A   2      61.396  41.890  93.922  0.00  0.00    -0.297 N 
ATOM      9  H   LEU A   2      61.281  42.853  93.546  0.00  0.00    +0.150 HD
ATOM     10  O   LEU A   1      62.215  39.849  93.557  0.00  0.00    -0.274 OA
BRANCH   7  11
ATOM     11  CA  LEU A   1      62.220  41.372  91.756  0.00  0.00    +0.145 C 
BRANCH  11  12
ATOM     12  N   LEU A   1      63.547  40.994  91.306  0.00  0.00    -0.238 NA
ATOM     13  H   LEU A   1      63.725  39.996  91.074  0.00  0.00    +0.142 HD
ENDBRANCH  11  12
BRANCH  11  14
ATOM     14  CB  LEU A   1      61.162  40.724  90.863  0.00  0.00    +0.026 C 
BRANCH  14  15
ATOM     15  CG  LEU A   1      61.204  41.016  89.370  0.00  0.00    +0.002 C 
ATOM     16  CD2 LEU A   1      60.955  42.478  89.175  0.00  0.00    +0.000 C 
ATOM     17  CD1 LEU A   1      60.167  40.199  88.634  0.00  0.00    +0.000 C 
ENDBRANCH  14  15
ENDBRANCH  11  14
ENDBRANCH   7  11
ENDBRANCH   6   8
BRANCH   6  18
ATOM     18  CB  LEU A   2      61.891  42.178  96.307  0.00  0.00    +0.029 C 
BRANCH  18  19
ATOM     19  CG  LEU A   2      61.734  41.746  97.761  0.00  0.00    +0.002 C 
ATOM     20  CD2 LEU A   2      63.029  41.979  98.488  0.00  0.00    +0.000 C 
ATOM     21  CD1 LEU A   2      60.643  42.533  98.439  0.00  0.00    +0.000 C 
ENDBRANCH  18  19
ENDBRANCH   6  18
ENDBRANCH   2   6
ENDBRANCH   1   3
BRANCH   1  22
ATOM     22  C   VAL A   3      56.860  41.547  97.307  0.00  0.00    +0.241 C 
ATOM     23  N   LEU A   4      56.176  42.515  97.875  0.00  0.00    -0.297 N 
ATOM     24  H   LEU A   4      55.913  43.345  97.306  0.00  0.00    +0.150 HD
ATOM     25  O   VAL A   3      57.174  40.510  97.875  0.00  0.00    -0.273 OA
BRANCH  23  26
ATOM     26  CA  LEU A   4      55.782  42.467  99.242  0.00  0.00    +0.149 C 
BRANCH  26  27
ATOM     27  C   LEU A   4      54.274  42.452  99.264  0.00  0.00    +0.241 C 
ATOM     28  N   ALA A   5      53.692  41.457  99.925  0.00  0.00    -0.298 N 
ATOM     29  H   ALA A   5      54.279  40.752 100.415  0.00  0.00    +0.150 HD
ATOM     30  O   LEU A   4      53.649  43.354  98.727  0.00  0.00    -0.273 OA
BRANCH  28  31
ATOM     31  CA  ALA A   5      52.241  41.344  99.970  0.00  0.00    +0.137 C 
ATOM     32  CB  ALA A   5      51.815  40.066  99.327  0.00  0.00    +0.030 C 
BRANCH  31  33
ATOM     33  C   ALA A   5      51.651  41.433 101.373  0.00  0.00    +0.227 C 
ATOM     34  O   ALA A   5      52.151  40.840 102.324  0.00  0.00    -0.286 OA
ENDBRANCH  31  33
ENDBRANCH  28  31
ENDBRANCH  26  27
BRANCH  26  35
ATOM     35  CB  LEU A   4      56.341  43.677  99.944  0.00  0.00    +0.029 C 
BRANCH  35  36
ATOM     36  CG  LEU A   4      56.391  43.681 101.450  0.00  0.00    +0.002 C 
ATOM     37  CD2 LEU A   4      54.999  43.891 102.015  0.00  0.00    +0.000 C 
ATOM     38  CD1 LEU A   4      57.312  44.814 101.852  0.00  0.00    +0.000 C 
ENDBRANCH  35  36
ENDBRANCH  26  35
ENDBRANCH  23  26
ENDBRANCH   1  22
BRANCH   1  39
ATOM     39  CB  VAL A   3      56.238  41.245  94.940  0.00  0.00    +0.027 C 
ATOM     40  CG2 VAL A   3      54.913  41.970  95.087  0.00  0.00    +0.002 C 
ATOM     41  CG1 VAL A   3      56.742  41.336  93.509  0.00  0.00    +0.002 C 
ENDBRANCH   1  39
TORSDOF 17
REMARK  Name = ../refined-set-2016/4yha/4yha_pocket.pdb
REMARK  140 active torsions:
REMARK  status: ('A' for Active; 'I' for Inactive)
REMARK    1  A    between atoms: _1  and  _3
REMARK    2  A    between atoms: _3  and  _4
REMARK    3  A    between atoms: _3  and  _6
REMARK    4  A    between atoms: _6  and  _7
REMARK    5  A    between atoms: _17  and  _19
REMARK    6  A    between atoms: _19  and  _20
REMARK    7  A    between atoms: _19  and  _22
REMARK    8  A    between atoms: _22  and  _23
REMARK    9  A    between atoms: _28  and  _29
REMARK   10  A    between atoms: _31  and  _33
REMARK   11  A    between atoms: _33  and  _34
REMARK   12  A    between atoms: _33  and  _36
REMARK   13  A    between atoms: _36  and  _37
REMARK   14  A    between atoms: _40  and  _41
REMARK   15  A    between atoms: _46  and  _48
REMARK   16  A    between atoms: _48  and  _49
REMARK   17  A    between atoms: _48  and  _51
REMARK   18  A    between atoms: _51  and  _52
REMARK   19  A    between atoms: _55  and  _57
REMARK   20  A    between atoms: _57  and  _58
REMARK   21  A    between atoms: _57  and  _60
REMARK   22  A    between atoms: _60  and  _61
REMARK   23  A    between atoms: _66  and  _68
REMARK   24  A    between atoms: _68  and  _69
REMARK   25  A    between atoms: _68  and  _71
REMARK   26  A    between atoms: _71  and  _72
REMARK   27  A    between atoms: _75  and  _77
REMARK   28  A    between atoms: _77  and  _78
REMARK   29  A    between atoms: _77  and  _80
REMARK   30  A    between atoms: _80  and  _81
REMARK   31  A    between atoms: _81  and  _82
REMARK   32  A    between atoms: _82  and  _83
REMARK   33  A    between atoms: _83  and  _84
REMARK   34  A    between atoms: _88  and  _90
REMARK   35  A    between atoms: _90  and  _91
REMARK   36  A    between atoms: _90  and  _93
REMARK   37  A    between atoms: _93  and  _94
REMARK   38  A    between atoms: _96  and  _98
REMARK   39  A    between atoms: _98  and  _99
REMARK   40  A    between atoms: _98  and  _101
REMARK   41  A    between atoms: _101  and  _102
REMARK   42  A    between atoms: _105  and  _107
REMARK   43  A    between atoms: _107  and  _108
REMARK   44  A    between atoms: _107  and  _110
REMARK   45  A    between atoms: _110  and  _111
REMARK   46  A    between atoms: _116  and  _118
REMARK   47  A    between atoms: _118  and  _119
REMARK   48  A    between atoms: _118  and  _121
REMARK   49  A    between atoms: _124  and  _126
REMARK   50  A    between atoms: _137  and  _140
REMARK   51  A    between atoms: _140  and  _141
REMARK   52  A    between atoms: _149  and  _150
REMARK   53  A    between atoms: _158  and  _160
REMARK   54  A    between atoms: _160  and  _161
REMARK   55  A    between atoms: _160  and  _163
REMARK   56  A    between atoms: _163  and  _164
REMARK   57  A    between atoms: _164  and  _165
REMARK   58  A    between atoms: _168  and  _170
REMARK   59  A    between atoms: _170  and  _171
REMARK   60  A    between atoms: _170  and  _173
REMARK   61  A    between atoms: _173  and  _174
REMARK   62  A    between atoms: _180  and  _182
REMARK   63  A    between atoms: _182  and  _183
REMARK   64  A    between atoms: _182  and  _185
REMARK   65  A    between atoms: _185  and  _186
REMARK   66  A    between atoms: _188  and  _190
REMARK   67  A    between atoms: _190  and  _191
REMARK   68  A    between atoms: _194  and  _196
REMARK   69  A    between atoms: _196  and  _197
REMARK   70  A    between atoms: _196  and  _199
REMARK   71  A    between atoms: _199  and  _200
REMARK   72  A    between atoms: _201  and  ZN_391
REMARK   73  A    between atoms: _205  and  _207
REMARK   74  A    between atoms: _207  and  _208
REMARK   75  A    between atoms: _207  and  _210
REMARK   76  A    between atoms: _210  and  _211
REMARK   77  A    between atoms: _217  and  _219
REMARK   78  A    between atoms: _219  and  _220
REMARK   79  A    between atoms: _219  and  _222
REMARK   80  A    between atoms: _225  and  _227
REMARK   81  A    between atoms: _227  and  _228
REMARK   82  A    between atoms: _227  and  _230
REMARK   83  A    between atoms: _230  and  _231
REMARK   84  A    between atoms: _236  and  _238
REMARK   85  A    between atoms: _238  and  _239
REMARK   86  A    between atoms: _238  and  _241
REMARK   87  A    between atoms: _241  and  _242
REMARK   88  A    between atoms: _245  and  _247
REMARK   89  A    between atoms: _247  and  _248
REMARK   90  A    between atoms: _247  and  _250
REMARK   91  A    between atoms: _250  and  _251
REMARK   92  A    between atoms: _254  and  _256
REMARK   93  A    between atoms: _256  and  _257
REMARK   94  A    between atoms: _256  and  _259
REMARK   95  A    between atoms: _262  and  _264
REMARK   96  A    between atoms: _264  and  _265
REMARK   97  A    between atoms: _264  and  _267
REMARK   98  A    between atoms: _267  and  _268
REMARK   99  A    between atoms: _271  and  _273
REMARK  100  A    between atoms: _273  and  _274
REMARK  101  A    between atoms: _277  and  _279
REMARK  102  A    between atoms: _279  and  _280
REMARK  103  A    between atoms: _279  and  _282
REMARK  104  A    between atoms: _282  and  _283
REMARK  105  A    between atoms: _285  and  _287
REMARK  106  A    between atoms: _287  and  _288
REMARK  107  A    between atoms: _287  and  _290
REMARK  108  A    between atoms: _290  and  _291
REMARK  109  A    between atoms: _294  and  _296
REMARK  110  A    between atoms: _296  and  _297
REMARK  111  A    between atoms: _296  and  _299
REMARK  112  A    between atoms: _299  and  _300
REMARK  113  A    between atoms: _303  and  _305
REMARK  114  A    between atoms: _305  and  _306
REMARK  115  A    between atoms: _310  and  _311
REMARK  116  A    between atoms: _317  and  _318
REMARK  117  A    between atoms: _323  and  _325
REMARK  118  A    between atoms: _325  and  _326
REMARK  119  A    between atoms: _325  and  _328
REMARK  120  A    between atoms: _330  and  _332
REMARK  121  A    between atoms: _332  and  _333
REMARK  122  A    between atoms: _332  and  _335
REMARK  123  A    between atoms: _335  and  _336
REMARK  124  A    between atoms: _339  and  _341
REMARK  125  A    between atoms: _341  and  _342
REMARK  126  A    between atoms: _341  and  _344
REMARK  127  A    between atoms: _347  and  _349
REMARK  128  A    between atoms: _349  and  _350
REMARK  129  A    between atoms: _349  and  _352
REMARK  130  A    between atoms: _352  and  _353
REMARK  131  A    between atoms: _363  and  _365
REMARK  132  A    between atoms: _365  and  _366
REMARK  133  A    between atoms: _365  and  _368
REMARK  134  A    between atoms: _368  and  _369
REMARK  135  A    between atoms: _374  and  _376
REMARK  136  A    between atoms: _376  and  _377
REMARK  137  A    between atoms: _376  and  _379
REMARK  138  A    between atoms: _379  and  _380
REMARK  139  A    between atoms: _380  and  _381
REMARK  140  A    between atoms: _381  and  _382
REMARK                            x       y       z     vdW  Elec       q    Type
REMARK                         _______ _______ _______ _____ _____    ______ ____
ROOT
ATOM      1  C   ALA A   4      50.846  38.363  85.200  0.00  0.00    +0.244 C 
ATOM      2  O   ALA A   4      52.046  38.345  85.452  0.00  0.00    -0.273 OA
ATOM      3  N   PRO A   5      50.371  38.192  83.956  0.00  0.00    -0.272 N 
ATOM      4  CD  PRO A   5      48.975  38.062  83.513  0.00  0.00    +0.094 C 
ATOM      5  CG  PRO A   5      49.118  37.531  82.125  0.00  0.00    +0.024 C 
ATOM      6  CB  PRO A   5      50.390  38.087  81.629  0.00  0.00    +0.031 C 
ATOM      7  CA  PRO A   5      51.306  38.033  82.839  0.00  0.00    +0.152 C 
ENDROOT
BRANCH   7   8
ATOM      8  C   PRO A   5      52.354  39.144  82.799  0.00  0.00    +0.244 C 
ATOM      9  O   PRO A   5      52.021  40.276  83.120  0.00  0.00    -0.273 OA
ATOM     10  N   PRO A   6      53.613  38.825  82.454  0.00  0.00    -0.272 N 
ATOM     11  CD  PRO A   6      54.638  39.875  82.555  0.00  0.00    +0.094 C 
ATOM     12  CG  PRO A   6      55.866  39.231  82.033  0.00  0.00    +0.024 C 
ATOM     13  CB  PRO A   6      55.448  38.062  81.243  0.00  0.00    +0.031 C 
ATOM     14  CA  PRO A   6      54.168  37.579  81.914  0.00  0.00    +0.152 C 
BRANCH  14  15
ATOM     15  C   PRO A   6      54.511  36.453  82.907  0.00  0.00    +0.241 C 
ATOM     16  N   CYS A   7      54.081  36.575  84.162  0.00  0.00    -0.296 N 
ATOM     17  H   CYS A   7      53.563  37.436  84.428  0.00  0.00    +0.150 HD
ATOM     18  O   PRO A   6      55.167  35.487  82.498  0.00  0.00    -0.273 OA
BRANCH  16  19
ATOM     19  CA  CYS A   7      54.306  35.550  85.183  0.00  0.00    +0.160 C 
BRANCH  19  20
ATOM     20  C   CYS A   7      55.757  35.250  85.452  0.00  0.00    +0.242 C 
ATOM     21  O   CYS A   7      56.113  34.120  85.770  0.00  0.00    -0.273 OA
ATOM     22  N   THR A   8      56.579  36.282  85.354  0.00  0.00    -0.296 N 
ATOM     23  H   THR A   8      56.181  37.218  85.136  0.00  0.00    +0.150 HD
BRANCH  22  24
ATOM     24  CA  THR A   8      58.008  36.163  85.538  0.00  0.00    +0.164 C 
BRANCH  24  25
ATOM     25  CB  THR A   8      58.615  37.551  85.513  0.00  0.00    +0.136 C 
ATOM     26  CG2 THR A   8      60.125  37.498  85.533  0.00  0.00    +0.034 C 
BRANCH  25  27
ATOM     27  OG1 THR A   8      58.165  38.212  84.332  0.00  0.00    -0.382 OA
ATOM     28  HG1 THR A   8      58.552  39.123  84.297  0.00  0.00    +0.210 HD
ENDBRANCH  25  27
ENDBRANCH  24  25
BRANCH  24  29
ATOM     29  C   THR A   8      58.373  35.487  86.850  0.00  0.00    +0.229 C 
ATOM     30  O   THR A   8      57.903  35.915  87.902  0.00  0.00    -0.286 OA
ENDBRANCH  24  29
ENDBRANCH  22  24
ENDBRANCH  19  20
BRANCH  19  31
ATOM     31  CB  CYS A   7      53.599  34.264  84.809  0.00  0.00    +0.098 C 
ATOM     32  SG  CYS A   7      51.932  34.540  84.351  0.00  0.00    -0.080 S 
ENDBRANCH  19  31
ENDBRANCH  16  19
ENDBRANCH  14  15
ENDBRANCH   7   8
BRANCH   1  33
ATOM     33  CA  ALA A   4      49.845  38.559  86.336  0.00  0.00    +0.149 C 
ATOM     34  CB  ALA A   4      49.407  40.003  86.442  0.00  0.00    +0.031 C 
BRANCH  33  37
ATOM     35  C   THR A   3      49.939  37.286  88.441  0.00  0.00    +0.243 C 
ATOM     36  O   THR A   3      48.805  36.823  88.322  0.00  0.00    -0.273 OA
ATOM     37  N   ALA A   4      50.488  38.127  87.572  0.00  0.00    -0.297 N 
ATOM     38  H   ALA A   4      51.435  38.501  87.786  0.00  0.00    +0.150 HD
BRANCH  35  39
ATOM     39  CA  THR A   3      50.805  36.928  89.639  0.00  0.00    +0.176 C 
BRANCH  39  41
ATOM     40  C   LEU A   2      53.152  37.017  89.076  0.00  0.00    +0.241 C 
ATOM     41  N   THR A   3      52.101  37.595  89.633  0.00  0.00    -0.295 N 
ATOM     42  H   THR A   3      52.200  38.533  90.070  0.00  0.00    +0.150 HD
ATOM     43  O   LEU A   2      53.059  35.991  88.416  0.00  0.00    -0.273 OA
BRANCH  40  44
ATOM     44  CA  LEU A   2      54.500  37.701  89.262  0.00  0.00    +0.149 C 
BRANCH  44  47
ATOM     45  C   SER A   1      55.515  35.799  90.343  0.00  0.00    +0.241 C 
ATOM     46  O   SER A   1      54.885  36.001  91.372  0.00  0.00    -0.274 OA
ATOM     47  N   LEU A   2      55.498  36.646  89.320  0.00  0.00    -0.297 N 
ATOM     48  H   LEU A   2      56.201  36.554  88.559  0.00  0.00    +0.150 HD
BRANCH  45  49
ATOM     49  CA  SER A   1      56.358  34.539  90.195  0.00  0.00    +0.174 C 
BRANCH  49  50
ATOM     50  N   SER A   1      56.457  33.790  91.438  0.00  0.00    -0.236 NA
ATOM     51  H   SER A   1      55.586  33.508  91.931  0.00  0.00    +0.142 HD
ENDBRANCH  49  50
BRANCH  49  52
ATOM     52  CB  SER A   1      55.753  33.647  89.116  0.00  0.00    +0.163 C 
BRANCH  52  53
ATOM     53  OG  SER A   1      54.362  33.498  89.322  0.00  0.00    -0.380 OA
ATOM     54  H   SER A   1      53.927  34.387  89.287  0.00  0.00    +0.211 HD
ENDBRANCH  52  53
ENDBRANCH  49  52
ENDBRANCH  45  49
ENDBRANCH  44  47
BRANCH  44  55
ATOM     55  CB  LEU A   2      54.783  38.690  88.132  0.00  0.00    +0.029 C 
BRANCH  55  56
ATOM     56  CG  LEU A   2      56.093  39.477  88.193  0.00  0.00    +0.002 C 
ATOM     57  CD2 LEU A   2      56.152  40.341  89.431  0.00  0.00    +0.000 C 
ATOM     58  CD1 LEU A   2      56.267  40.316  86.937  0.00  0.00    +0.000 C 
ENDBRANCH  55  56
ENDBRANCH  44  55
ENDBRANCH  40  44
ENDBRANCH  39  41
BRANCH  39  59
ATOM     59  CB  THR A   3      50.045  37.271  90.901  0.00  0.00    +0.137 C 
ATOM     60  CG2 THR A   3      50.821  36.807  92.108  0.00  0.00    +0.034 C 
BRANCH  59  61
ATOM     61  OG1 THR A   3      49.884  38.684  90.965  0.00  0.00    -0.382 OA
ATOM     62  HG1 THR A   3      49.387  38.921  91.788  0.00  0.00    +0.210 HD
ENDBRANCH  59  61
ENDBRANCH  39  59
ENDBRANCH  35  39
ENDBRANCH  33  37
ENDBRANCH   1  33
TORSDOF 23
REMARK  Name = ../refined-set-2016/4yha/4yha_pocket.pdb
REMARK  140 active torsions:
REMARK  status: ('A' for Active; 'I' for Inactive)
REMARK    1  A    between atoms: _1  and  _3
REMARK    2  A    between atoms: _3  and  _4
REMARK    3  A    between atoms: _3  and  _6
REMARK    4  A    between atoms: _6  and  _7
REMARK    5  A    between atoms: _17  and  _19
REMARK    6  A    between atoms: _19  and  _20
REMARK    7  A    between atoms: _19  and  _22
REMARK    8  A    between atoms: _22  and  _23
REMARK    9  A    between atoms: _28  and  _29
REMARK   10  A    between atoms: _31  and  _33
REMARK   11  A    between atoms: _33  and  _34
REMARK   12  A    between atoms: _33  and  _36
REMARK   13  A    between atoms: _36  and  _37
REMARK   14  A    between atoms: _40  and  _41
REMARK   15  A    between atoms: _46  and  _48
REMARK   16  A    between atoms: _48  and  _49
REMARK   17  A    between atoms: _48  and  _51
REMARK   18  A    between atoms: _51  and  _52
REMARK   19  A    between atoms: _55  and  _57
REMARK   20  A    between atoms: _57  and  _58
REMARK   21  A    between atoms: _57  and  _60
REMARK   22  A    between atoms: _60  and  _61
REMARK   23  A    between atoms: _66  and  _68
REMARK   24  A    between atoms: _68  and  _69
REMARK   25  A    between atoms: _68  and  _71
REMARK   26  A    between atoms: _71  and  _72
REMARK   27  A    between atoms: _75  and  _77
REMARK   28  A    between atoms: _77  and  _78
REMARK   29  A    between atoms: _77  and  _80
REMARK   30  A    between atoms: _80  and  _81
REMARK   31  A    between atoms: _81  and  _82
REMARK   32  A    between atoms: _82  and  _83
REMARK   33  A    between atoms: _83  and  _84
REMARK   34  A    between atoms: _88  and  _90
REMARK   35  A    between atoms: _90  and  _91
REMARK   36  A    between atoms: _90  and  _93
REMARK   37  A    between atoms: _93  and  _94
REMARK   38  A    between atoms: _96  and  _98
REMARK   39  A    between atoms: _98  and  _99
REMARK   40  A    between atoms: _98  and  _101
REMARK   41  A    between atoms: _101  and  _102
REMARK   42  A    between atoms: _105  and  _107
REMARK   43  A    between atoms: _107  and  _108
REMARK   44  A    between atoms: _107  and  _110
REMARK   45  A    between atoms: _110  and  _111
REMARK   46  A    between atoms: _116  and  _118
REMARK   47  A    between atoms: _118  and  _119
REMARK   48  A    between atoms: _118  and  _121
REMARK   49  A    between atoms: _124  and  _126
REMARK   50  A    between atoms: _137  and  _140
REMARK   51  A    between atoms: _140  and  _141
REMARK   52  A    between atoms: _149  and  _150
REMARK   53  A    between atoms: _158  and  _160
REMARK   54  A    between atoms: _160  and  _161
REMARK   55  A    between atoms: _160  and  _163
REMARK   56  A    between atoms: _163  and  _164
REMARK   57  A    between atoms: _164  and  _165
REMARK   58  A    between atoms: _168  and  _170
REMARK   59  A    between atoms: _170  and  _171
REMARK   60  A    between atoms: _170  and  _173
REMARK   61  A    between atoms: _173  and  _174
REMARK   62  A    between atoms: _180  and  _182
REMARK   63  A    between atoms: _182  and  _183
REMARK   64  A    between atoms: _182  and  _185
REMARK   65  A    between atoms: _185  and  _186
REMARK   66  A    between atoms: _188  and  _190
REMARK   67  A    between atoms: _190  and  _191
REMARK   68  A    between atoms: _194  and  _196
REMARK   69  A    between atoms: _196  and  _197
REMARK   70  A    between atoms: _196  and  _199
REMARK   71  A    between atoms: _199  and  _200
REMARK   72  A    between atoms: _201  and  ZN_391
REMARK   73  A    between atoms: _205  and  _207
REMARK   74  A    between atoms: _207  and  _208
REMARK   75  A    between atoms: _207  and  _210
REMARK   76  A    between atoms: _210  and  _211
REMARK   77  A    between atoms: _217  and  _219
REMARK   78  A    between atoms: _219  and  _220
REMARK   79  A    between atoms: _219  and  _222
REMARK   80  A    between atoms: _225  and  _227
REMARK   81  A    between atoms: _227  and  _228
REMARK   82  A    between atoms: _227  and  _230
REMARK   83  A    between atoms: _230  and  _231
REMARK   84  A    between atoms: _236  and  _238
REMARK   85  A    between atoms: _238  and  _239
REMARK   86  A    between atoms: _238  and  _241
REMARK   87  A    between atoms: _241  and  _242
REMARK   88  A    between atoms: _245  and  _247
REMARK   89  A    between atoms: _247  and  _248
REMARK   90  A    between atoms: _247  and  _250
REMARK   91  A    between atoms: _250  and  _251
REMARK   92  A    between atoms: _254  and  _256
REMARK   93  A    between atoms: _256  and  _257
REMARK   94  A    between atoms: _256  and  _259
REMARK   95  A    between atoms: _262  and  _264
REMARK   96  A    between atoms: _264  and  _265
REMARK   97  A    between atoms: _264  and  _267
REMARK   98  A    between atoms: _267  and  _268
REMARK   99  A    between atoms: _271  and  _273
REMARK  100  A    between atoms: _273  and  _274
REMARK  101  A    between atoms: _277  and  _279
REMARK  102  A    between atoms: _279  and  _280
REMARK  103  A    between atoms: _279  and  _282
REMARK  104  A    between atoms: _282  and  _283
REMARK  105  A    between atoms: _285  and  _287
REMARK  106  A    between atoms: _287  and  _288
REMARK  107  A    between atoms: _287  and  _290
REMARK  108  A    between atoms: _290  and  _291
REMARK  109  A    between atoms: _294  and  _296
REMARK  110  A    between atoms: _296  and  _297
REMARK  111  A    between atoms: _296  and  _299
REMARK  112  A    between atoms: _299  and  _300
REMARK  113  A    between atoms: _303  and  _305
REMARK  114  A    between atoms: _305  and  _306
REMARK  115  A    between atoms: _310  and  _311
REMARK  116  A    between atoms: _317  and  _318
REMARK  117  A    between atoms: _323  and  _325
REMARK  118  A    between atoms: _325  and  _326
REMARK  119  A    between atoms: _325  and  _328
REMARK  120  A    between atoms: _330  and  _332
REMARK  121  A    between atoms: _332  and  _333
REMARK  122  A    between atoms: _332  and  _335
REMARK  123  A    between atoms: _335  and  _336
REMARK  124  A    between atoms: _339  and  _341
REMARK  125  A    between atoms: _341  and  _342
REMARK  126  A    between atoms: _341  and  _344
REMARK  127  A    between atoms: _347  and  _349
REMARK  128  A    between atoms: _349  and  _350
REMARK  129  A    between atoms: _349  and  _352
REMARK  130  A    between atoms: _352  and  _353
REMARK  131  A    between atoms: _363  and  _365
REMARK  132  A    between atoms: _365  and  _366
REMARK  133  A    between atoms: _365  and  _368
REMARK  134  A    between atoms: _368  and  _369
REMARK  135  A    between atoms: _374  and  _376
REMARK  136  A    between atoms: _376  and  _377
REMARK  137  A    between atoms: _376  and  _379
REMARK  138  A    between atoms: _379  and  _380
REMARK  139  A    between atoms: _380  and  _381
REMARK  140  A    between atoms: _381  and  _382
REMARK                            x       y       z     vdW  Elec       q    Type
REMARK                         _______ _______ _______ _____ _____    ______ ____
ROOT
ATOM      1  CA  VAL A   1      60.427  36.663  92.453  0.00  0.00    +0.133 C 
ENDROOT
BRANCH   1   2
ATOM      2  CB  VAL A   1      58.945  36.906  92.098  0.00  0.00    +0.023 C 
ATOM      3  CG2 VAL A   1      58.327  37.921  93.053  0.00  0.00    +0.002 C 
ATOM      4  CG1 VAL A   1      58.799  37.327  90.636  0.00  0.00    +0.002 C 
ENDBRANCH   1   2
BRANCH   1   5
ATOM      5  N   VAL A   1      60.986  35.596  91.618  0.00  0.00    -0.239 NA
ATOM      6  H   VAL A   1      60.366  34.805  91.351  0.00  0.00    +0.142 HD
ENDBRANCH   1   5
BRANCH   1   7
ATOM      7  C   VAL A   1      60.517  36.359  93.948  0.00  0.00    +0.224 C 
ATOM      8  O   VAL A   1      59.938  35.389  94.423  0.00  0.00    -0.287 OA
ENDBRANCH   1   7
TORSDOF 3
REMARK  Name = ../refined-set-2016/4yha/4yha_pocket.pdb
REMARK  140 active torsions:
REMARK  status: ('A' for Active; 'I' for Inactive)
REMARK    1  A    between atoms: _1  and  _3
REMARK    2  A    between atoms: _3  and  _4
REMARK    3  A    between atoms: _3  and  _6
REMARK    4  A    between atoms: _6  and  _7
REMARK    5  A    between atoms: _17  and  _19
REMARK    6  A    between atoms: _19  and  _20
REMARK    7  A    between atoms: _19  and  _22
REMARK    8  A    between atoms: _22  and  _23
REMARK    9  A    between atoms: _28  and  _29
REMARK   10  A    between atoms: _31  and  _33
REMARK   11  A    between atoms: _33  and  _34
REMARK   12  A    between atoms: _33  and  _36
REMARK   13  A    between atoms: _36  and  _37
REMARK   14  A    between atoms: _40  and  _41
REMARK   15  A    between atoms: _46  and  _48
REMARK   16  A    between atoms: _48  and  _49
REMARK   17  A    between atoms: _48  and  _51
REMARK   18  A    between atoms: _51  and  _52
REMARK   19  A    between atoms: _55  and  _57
REMARK   20  A    between atoms: _57  and  _58
REMARK   21  A    between atoms: _57  and  _60
REMARK   22  A    between atoms: _60  and  _61
REMARK   23  A    between atoms: _66  and  _68
REMARK   24  A    between atoms: _68  and  _69
REMARK   25  A    between atoms: _68  and  _71
REMARK   26  A    between atoms: _71  and  _72
REMARK   27  A    between atoms: _75  and  _77
REMARK   28  A    between atoms: _77  and  _78
REMARK   29  A    between atoms: _77  and  _80
REMARK   30  A    between atoms: _80  and  _81
REMARK   31  A    between atoms: _81  and  _82
REMARK   32  A    between atoms: _82  and  _83
REMARK   33  A    between atoms: _83  and  _84
REMARK   34  A    between atoms: _88  and  _90
REMARK   35  A    between atoms: _90  and  _91
REMARK   36  A    between atoms: _90  and  _93
REMARK   37  A    between atoms: _93  and  _94
REMARK   38  A    between atoms: _96  and  _98
REMARK   39  A    between atoms: _98  and  _99
REMARK   40  A    between atoms: _98  and  _101
REMARK   41  A    between atoms: _101  and  _102
REMARK   42  A    between atoms: _105  and  _107
REMARK   43  A    between atoms: _107  and  _108
REMARK   44  A    between atoms: _107  and  _110
REMARK   45  A    between atoms: _110  and  _111
REMARK   46  A    between atoms: _116  and  _118
REMARK   47  A    between atoms: _118  and  _119
REMARK   48  A    between atoms: _118  and  _121
REMARK   49  A    between atoms: _124  and  _126
REMARK   50  A    between atoms: _137  and  _140
REMARK   51  A    between atoms: _140  and  _141
REMARK   52  A    between atoms: _149  and  _150
REMARK   53  A    between atoms: _158  and  _160
REMARK   54  A    between atoms: _160  and  _161
REMARK   55  A    between atoms: _160  and  _163
REMARK   56  A    between atoms: _163  and  _164
REMARK   57  A    between atoms: _164  and  _165
REMARK   58  A    between atoms: _168  and  _170
REMARK   59  A    between atoms: _170  and  _171
REMARK   60  A    between atoms: _170  and  _173
REMARK   61  A    between atoms: _173  and  _174
REMARK   62  A    between atoms: _180  and  _182
REMARK   63  A    between atoms: _182  and  _183
REMARK   64  A    between atoms: _182  and  _185
REMARK   65  A    between atoms: _185  and  _186
REMARK   66  A    between atoms: _188  and  _190
REMARK   67  A    between atoms: _190  and  _191
REMARK   68  A    between atoms: _194  and  _196
REMARK   69  A    between atoms: _196  and  _197
REMARK   70  A    between atoms: _196  and  _199
REMARK   71  A    between atoms: _199  and  _200
REMARK   72  A    between atoms: _201  and  ZN_391
REMARK   73  A    between atoms: _205  and  _207
REMARK   74  A    between atoms: _207  and  _208
REMARK   75  A    between atoms: _207  and  _210
REMARK   76  A    between atoms: _210  and  _211
REMARK   77  A    between atoms: _217  and  _219
REMARK   78  A    between atoms: _219  and  _220
REMARK   79  A    between atoms: _219  and  _222
REMARK   80  A    between atoms: _225  and  _227
REMARK   81  A    between atoms: _227  and  _228
REMARK   82  A    between atoms: _227  and  _230
REMARK   83  A    between atoms: _230  and  _231
REMARK   84  A    between atoms: _236  and  _238
REMARK   85  A    between atoms: _238  and  _239
REMARK   86  A    between atoms: _238  and  _241
REMARK   87  A    between atoms: _241  and  _242
REMARK   88  A    between atoms: _245  and  _247
REMARK   89  A    between atoms: _247  and  _248
REMARK   90  A    between atoms: _247  and  _250
REMARK   91  A    between atoms: _250  and  _251
REMARK   92  A    between atoms: _254  and  _256
REMARK   93  A    between atoms: _256  and  _257
REMARK   94  A    between atoms: _256  and  _259
REMARK   95  A    between atoms: _262  and  _264
REMARK   96  A    between atoms: _264  and  _265
REMARK   97  A    between atoms: _264  and  _267
REMARK   98  A    between atoms: _267  and  _268
REMARK   99  A    between atoms: _271  and  _273
REMARK  100  A    between atoms: _273  and  _274
REMARK  101  A    between atoms: _277  and  _279
REMARK  102  A    between atoms: _279  and  _280
REMARK  103  A    between atoms: _279  and  _282
REMARK  104  A    between atoms: _282  and  _283
REMARK  105  A    between atoms: _285  and  _287
REMARK  106  A    between atoms: _287  and  _288
REMARK  107  A    between atoms: _287  and  _290
REMARK  108  A    between atoms: _290  and  _291
REMARK  109  A    between atoms: _294  and  _296
REMARK  110  A    between atoms: _296  and  _297
REMARK  111  A    between atoms: _296  and  _299
REMARK  112  A    between atoms: _299  and  _300
REMARK  113  A    between atoms: _303  and  _305
REMARK  114  A    between atoms: _305  and  _306
REMARK  115  A    between atoms: _310  and  _311
REMARK  116  A    between atoms: _317  and  _318
REMARK  117  A    between atoms: _323  and  _325
REMARK  118  A    between atoms: _325  and  _326
REMARK  119  A    between atoms: _325  and  _328
REMARK  120  A    between atoms: _330  and  _332
REMARK  121  A    between atoms: _332  and  _333
REMARK  122  A    between atoms: _332  and  _335
REMARK  123  A    between atoms: _335  and  _336
REMARK  124  A    between atoms: _339  and  _341
REMARK  125  A    between atoms: _341  and  _342
REMARK  126  A    between atoms: _341  and  _344
REMARK  127  A    between atoms: _347  and  _349
REMARK  128  A    between atoms: _349  and  _350
REMARK  129  A    between atoms: _349  and  _352
REMARK  130  A    between atoms: _352  and  _353
REMARK  131  A    between atoms: _363  and  _365
REMARK  132  A    between atoms: _365  and  _366
REMARK  133  A    between atoms: _365  and  _368
REMARK  134  A    between atoms: _368  and  _369
REMARK  135  A    between atoms: _374  and  _376
REMARK  136  A    between atoms: _376  and  _377
REMARK  137  A    between atoms: _376  and  _379
REMARK  138  A    between atoms: _379  and  _380
REMARK  139  A    between atoms: _380  and  _381
REMARK  140  A    between atoms: _381  and  _382
REMARK                            x       y       z     vdW  Elec       q    Type
REMARK                         _______ _______ _______ _____ _____    ______ ____
ROOT
ATOM      1  CG  TRP A   1      56.250  36.202  96.145  0.00  0.00    -0.002 A 
ATOM      2  CD2 TRP A   1      55.273  37.154  95.703  0.00  0.00    +0.013 A 
ATOM      3  CE3 TRP A   1      54.584  38.201  96.326  0.00  0.00    +0.001 A 
ATOM      4  CZ3 TRP A   1      53.676  38.932  95.581  0.00  0.00    +0.000 A 
ATOM      5  CH2 TRP A   1      53.447  38.641  94.225  0.00  0.00    +0.001 A 
ATOM      6  CZ2 TRP A   1      54.099  37.626  93.590  0.00  0.00    +0.017 A 
ATOM      7  CE2 TRP A   1      55.012  36.891  94.337  0.00  0.00    +0.056 A 
ATOM      8  NE1 TRP A   1      55.796  35.829  93.973  0.00  0.00    -0.352 N 
ATOM      9  HE1 TRP A   1      55.828  35.395  93.028  0.00  0.00    +0.166 HD
ATOM     10  CD1 TRP A   1      56.535  35.430  95.064  0.00  0.00    +0.068 A 
ENDROOT
BRANCH   1  11
ATOM     11  CB  TRP A   1      56.849  36.073  97.525  0.00  0.00    +0.053 C 
BRANCH  11  12
ATOM     12  CA  TRP A   1      57.941  37.086  97.846  0.00  0.00    +0.137 C 
BRANCH  12  13
ATOM     13  N   TRP A   1      59.196  36.670  97.265  0.00  0.00    -0.239 NA
ATOM     14  H   TRP A   1      59.438  35.659  97.225  0.00  0.00    +0.142 HD
ENDBRANCH  12  13
BRANCH  12  15
ATOM     15  C   TRP A   1      58.092  37.243  99.357  0.00  0.00    +0.224 C 
ATOM     16  O   TRP A   1      58.726  36.429 100.023  0.00  0.00    -0.287 OA
ENDBRANCH  12  15
ENDBRANCH  11  12
ENDBRANCH   1  11
TORSDOF 4
REMARK  Name = ../refined-set-2016/4yha/4yha_pocket.pdb
REMARK  140 active torsions:
REMARK  status: ('A' for Active; 'I' for Inactive)
REMARK    1  A    between atoms: _1  and  _3
REMARK    2  A    between atoms: _3  and  _4
REMARK    3  A    between atoms: _3  and  _6
REMARK    4  A    between atoms: _6  and  _7
REMARK    5  A    between atoms: _17  and  _19
REMARK    6  A    between atoms: _19  and  _20
REMARK    7  A    between atoms: _19  and  _22
REMARK    8  A    between atoms: _22  and  _23
REMARK    9  A    between atoms: _28  and  _29
REMARK   10  A    between atoms: _31  and  _33
REMARK   11  A    between atoms: _33  and  _34
REMARK   12  A    between atoms: _33  and  _36
REMARK   13  A    between atoms: _36  and  _37
REMARK   14  A    between atoms: _40  and  _41
REMARK   15  A    between atoms: _46  and  _48
REMARK   16  A    between atoms: _48  and  _49
REMARK   17  A    between atoms: _48  and  _51
REMARK   18  A    between atoms: _51  and  _52
REMARK   19  A    between atoms: _55  and  _57
REMARK   20  A    between atoms: _57  and  _58
REMARK   21  A    between atoms: _57  and  _60
REMARK   22  A    between atoms: _60  and  _61
REMARK   23  A    between atoms: _66  and  _68
REMARK   24  A    between atoms: _68  and  _69
REMARK   25  A    between atoms: _68  and  _71
REMARK   26  A    between atoms: _71  and  _72
REMARK   27  A    between atoms: _75  and  _77
REMARK   28  A    between atoms: _77  and  _78
REMARK   29  A    between atoms: _77  and  _80
REMARK   30  A    between atoms: _80  and  _81
REMARK   31  A    between atoms: _81  and  _82
REMARK   32  A    between atoms: _82  and  _83
REMARK   33  A    between atoms: _83  and  _84
REMARK   34  A    between atoms: _88  and  _90
REMARK   35  A    between atoms: _90  and  _91
REMARK   36  A    between atoms: _90  and  _93
REMARK   37  A    between atoms: _93  and  _94
REMARK   38  A    between atoms: _96  and  _98
REMARK   39  A    between atoms: _98  and  _99
REMARK   40  A    between atoms: _98  and  _101
REMARK   41  A    between atoms: _101  and  _102
REMARK   42  A    between atoms: _105  and  _107
REMARK   43  A    between atoms: _107  and  _108
REMARK   44  A    between atoms: _107  and  _110
REMARK   45  A    between atoms: _110  and  _111
REMARK   46  A    between atoms: _116  and  _118
REMARK   47  A    between atoms: _118  and  _119
REMARK   48  A    between atoms: _118  and  _121
REMARK   49  A    between atoms: _124  and  _126
REMARK   50  A    between atoms: _137  and  _140
REMARK   51  A    between atoms: _140  and  _141
REMARK   52  A    between atoms: _149  and  _150
REMARK   53  A    between atoms: _158  and  _160
REMARK   54  A    between atoms: _160  and  _161
REMARK   55  A    between atoms: _160  and  _163
REMARK   56  A    between atoms: _163  and  _164
REMARK   57  A    between atoms: _164  and  _165
REMARK   58  A    between atoms: _168  and  _170
REMARK   59  A    between atoms: _170  and  _171
REMARK   60  A    between atoms: _170  and  _173
REMARK   61  A    between atoms: _173  and  _174
REMARK   62  A    between atoms: _180  and  _182
REMARK   63  A    between atoms: _182  and  _183
REMARK   64  A    between atoms: _182  and  _185
REMARK   65  A    between atoms: _185  and  _186
REMARK   66  A    between atoms: _188  and  _190
REMARK   67  A    between atoms: _190  and  _191
REMARK   68  A    between atoms: _194  and  _196
REMARK   69  A    between atoms: _196  and  _197
REMARK   70  A    between atoms: _196  and  _199
REMARK   71  A    between atoms: _199  and  _200
REMARK   72  A    between atoms: _201  and  ZN_391
REMARK   73  A    between atoms: _205  and  _207
REMARK   74  A    between atoms: _207  and  _208
REMARK   75  A    between atoms: _207  and  _210
REMARK   76  A    between atoms: _210  and  _211
REMARK   77  A    between atoms: _217  and  _219
REMARK   78  A    between atoms: _219  and  _220
REMARK   79  A    between atoms: _219  and  _222
REMARK   80  A    between atoms: _225  and  _227
REMARK   81  A    between atoms: _227  and  _228
REMARK   82  A    between atoms: _227  and  _230
REMARK   83  A    between atoms: _230  and  _231
REMARK   84  A    between atoms: _236  and  _238
REMARK   85  A    between atoms: _238  and  _239
REMARK   86  A    between atoms: _238  and  _241
REMARK   87  A    between atoms: _241  and  _242
REMARK   88  A    between atoms: _245  and  _247
REMARK   89  A    between atoms: _247  and  _248
REMARK   90  A    between atoms: _247  and  _250
REMARK   91  A    between atoms: _250  and  _251
REMARK   92  A    between atoms: _254  and  _256
REMARK   93  A    between atoms: _256  and  _257
REMARK   94  A    between atoms: _256  and  _259
REMARK   95  A    between atoms: _262  and  _264
REMARK   96  A    between atoms: _264  and  _265
REMARK   97  A    between atoms: _264  and  _267
REMARK   98  A    between atoms: _267  and  _268
REMARK   99  A    between atoms: _271  and  _273
REMARK  100  A    between atoms: _273  and  _274
REMARK  101  A    between atoms: _277  and  _279
REMARK  102  A    between atoms: _279  and  _280
REMARK  103  A    between atoms: _279  and  _282
REMARK  104  A    between atoms: _282  and  _283
REMARK  105  A    between atoms: _285  and  _287
REMARK  106  A    between atoms: _287  and  _288
REMARK  107  A    between atoms: _287  and  _290
REMARK  108  A    between atoms: _290  and  _291
REMARK  109  A    between atoms: _294  and  _296
REMARK  110  A    between atoms: _296  and  _297
REMARK  111  A    between atoms: _296  and  _299
REMARK  112  A    between atoms: _299  and  _300
REMARK  113  A    between atoms: _303  and  _305
REMARK  114  A    between atoms: _305  and  _306
REMARK  115  A    between atoms: _310  and  _311
REMARK  116  A    between atoms: _317  and  _318
REMARK  117  A    between atoms: _323  and  _325
REMARK  118  A    between atoms: _325  and  _326
REMARK  119  A    between atoms: _325  and  _328
REMARK  120  A    between atoms: _330  and  _332
REMARK  121  A    between atoms: _332  and  _333
REMARK  122  A    between atoms: _332  and  _335
REMARK  123  A    between atoms: _335  and  _336
REMARK  124  A    between atoms: _339  and  _341
REMARK  125  A    between atoms: _341  and  _342
REMARK  126  A    between atoms: _341  and  _344
REMARK  127  A    between atoms: _347  and  _349
REMARK  128  A    between atoms: _349  and  _350
REMARK  129  A    between atoms: _349  and  _352
REMARK  130  A    between atoms: _352  and  _353
REMARK  131  A    between atoms: _363  and  _365
REMARK  132  A    between atoms: _365  and  _366
REMARK  133  A    between atoms: _365  and  _368
REMARK  134  A    between atoms: _368  and  _369
REMARK  135  A    between atoms: _374  and  _376
REMARK  136  A    between atoms: _376  and  _377
REMARK  137  A    between atoms: _376  and  _379
REMARK  138  A    between atoms: _379  and  _380
REMARK  139  A    between atoms: _380  and  _381
REMARK  140  A    between atoms: _381  and  _382
REMARK                            x       y       z     vdW  Elec       q    Type
REMARK                         _______ _______ _______ _____ _____    ______ ____
ROOT
ATOM      1  CB  ASN A   1      42.477  42.109  89.330  0.00  0.00    +0.110 C 
ENDROOT
BRANCH   1   2
ATOM      2  CG  ASN A   1      42.666  42.905  90.586  0.00  0.00    +0.221 C 
ATOM      3  OD1 ASN A   1      41.914  42.757  91.541  0.00  0.00    -0.275 OA
ATOM      4  ND2 ASN A   1      43.666  43.770  90.591  0.00  0.00    -0.329 N 
ATOM      5 HD21 ASN A   1      43.840  44.359  91.430  0.00  0.00    +0.145 HD
ATOM      6 HD22 ASN A   1      44.279  43.861  89.756  0.00  0.00    +0.145 HD
ENDBRANCH   1   2
BRANCH   1   7
ATOM      7  CA  ASN A   1      41.804  40.757  89.574  0.00  0.00    +0.142 C 
BRANCH   7   8
ATOM      8  N   ASN A   1      40.508  40.926  90.201  0.00  0.00    -0.239 NA
ATOM      9  H   ASN A   1      40.450  41.331  91.157  0.00  0.00    +0.142 HD
ENDBRANCH   7   8
BRANCH   7  10
ATOM     10  C   ASN A   1      42.659  39.852  90.431  0.00  0.00    +0.225 C 
ATOM     11  O   ASN A   1      43.765  40.199  90.845  0.00  0.00    -0.287 OA
ENDBRANCH   7  10
ENDBRANCH   1   7
TORSDOF 4
REMARK  Name = ../refined-set-2016/4yha/4yha_pocket.pdb
REMARK  140 active torsions:
REMARK  status: ('A' for Active; 'I' for Inactive)
REMARK    1  A    between atoms: _1  and  _3
REMARK    2  A    between atoms: _3  and  _4
REMARK    3  A    between atoms: _3  and  _6
REMARK    4  A    between atoms: _6  and  _7
REMARK    5  A    between atoms: _17  and  _19
REMARK    6  A    between atoms: _19  and  _20
REMARK    7  A    between atoms: _19  and  _22
REMARK    8  A    between atoms: _22  and  _23
REMARK    9  A    between atoms: _28  and  _29
REMARK   10  A    between atoms: _31  and  _33
REMARK   11  A    between atoms: _33  and  _34
REMARK   12  A    between atoms: _33  and  _36
REMARK   13  A    between atoms: _36  and  _37
REMARK   14  A    between atoms: _40  and  _41
REMARK   15  A    between atoms: _46  and  _48
REMARK   16  A    between atoms: _48  and  _49
REMARK   17  A    between atoms: _48  and  _51
REMARK   18  A    between atoms: _51  and  _52
REMARK   19  A    between atoms: _55  and  _57
REMARK   20  A    between atoms: _57  and  _58
REMARK   21  A    between atoms: _57  and  _60
REMARK   22  A    between atoms: _60  and  _61
REMARK   23  A    between atoms: _66  and  _68
REMARK   24  A    between atoms: _68  and  _69
REMARK   25  A    between atoms: _68  and  _71
REMARK   26  A    between atoms: _71  and  _72
REMARK   27  A    between atoms: _75  and  _77
REMARK   28  A    between atoms: _77  and  _78
REMARK   29  A    between atoms: _77  and  _80
REMARK   30  A    between atoms: _80  and  _81
REMARK   31  A    between atoms: _81  and  _82
REMARK   32  A    between atoms: _82  and  _83
REMARK   33  A    between atoms: _83  and  _84
REMARK   34  A    between atoms: _88  and  _90
REMARK   35  A    between atoms: _90  and  _91
REMARK   36  A    between atoms: _90  and  _93
REMARK   37  A    between atoms: _93  and  _94
REMARK   38  A    between atoms: _96  and  _98
REMARK   39  A    between atoms: _98  and  _99
REMARK   40  A    between atoms: _98  and  _101
REMARK   41  A    between atoms: _101  and  _102
REMARK   42  A    between atoms: _105  and  _107
REMARK   43  A    between atoms: _107  and  _108
REMARK   44  A    between atoms: _107  and  _110
REMARK   45  A    between atoms: _110  and  _111
REMARK   46  A    between atoms: _116  and  _118
REMARK   47  A    between atoms: _118  and  _119
REMARK   48  A    between atoms: _118  and  _121
REMARK   49  A    between atoms: _124  and  _126
REMARK   50  A    between atoms: _137  and  _140
REMARK   51  A    between atoms: _140  and  _141
REMARK   52  A    between atoms: _149  and  _150
REMARK   53  A    between atoms: _158  and  _160
REMARK   54  A    between atoms: _160  and  _161
REMARK   55  A    between atoms: _160  and  _163
REMARK   56  A    between atoms: _163  and  _164
REMARK   57  A    between atoms: _164  and  _165
REMARK   58  A    between atoms: _168  and  _170
REMARK   59  A    between atoms: _170  and  _171
REMARK   60  A    between atoms: _170  and  _173
REMARK   61  A    between atoms: _173  and  _174
REMARK   62  A    between atoms: _180  and  _182
REMARK   63  A    between atoms: _182  and  _183
REMARK   64  A    between atoms: _182  and  _185
REMARK   65  A    between atoms: _185  and  _186
REMARK   66  A    between atoms: _188  and  _190
REMARK   67  A    between atoms: _190  and  _191
REMARK   68  A    between atoms: _194  and  _196
REMARK   69  A    between atoms: _196  and  _197
REMARK   70  A    between atoms: _196  and  _199
REMARK   71  A    between atoms: _199  and  _200
REMARK   72  A    between atoms: _201  and  ZN_391
REMARK   73  A    between atoms: _205  and  _207
REMARK   74  A    between atoms: _207  and  _208
REMARK   75  A    between atoms: _207  and  _210
REMARK   76  A    between atoms: _210  and  _211
REMARK   77  A    between atoms: _217  and  _219
REMARK   78  A    between atoms: _219  and  _220
REMARK   79  A    between atoms: _219  and  _222
REMARK   80  A    between atoms: _225  and  _227
REMARK   81  A    between atoms: _227  and  _228
REMARK   82  A    between atoms: _227  and  _230
REMARK   83  A    between atoms: _230  and  _231
REMARK   84  A    between atoms: _236  and  _238
REMARK   85  A    between atoms: _238  and  _239
REMARK   86  A    between atoms: _238  and  _241
REMARK   87  A    between atoms: _241  and  _242
REMARK   88  A    between atoms: _245  and  _247
REMARK   89  A    between atoms: _247  and  _248
REMARK   90  A    between atoms: _247  and  _250
REMARK   91  A    between atoms: _250  and  _251
REMARK   92  A    between atoms: _254  and  _256
REMARK   93  A    between atoms: _256  and  _257
REMARK   94  A    between atoms: _256  and  _259
REMARK   95  A    between atoms: _262  and  _264
REMARK   96  A    between atoms: _264  and  _265
REMARK   97  A    between atoms: _264  and  _267
REMARK   98  A    between atoms: _267  and  _268
REMARK   99  A    between atoms: _271  and  _273
REMARK  100  A    between atoms: _273  and  _274
REMARK  101  A    between atoms: _277  and  _279
REMARK  102  A    between atoms: _279  and  _280
REMARK  103  A    between atoms: _279  and  _282
REMARK  104  A    between atoms: _282  and  _283
REMARK  105  A    between atoms: _285  and  _287
REMARK  106  A    between atoms: _287  and  _288
REMARK  107  A    between atoms: _287  and  _290
REMARK  108  A    between atoms: _290  and  _291
REMARK  109  A    between atoms: _294  and  _296
REMARK  110  A    between atoms: _296  and  _297
REMARK  111  A    between atoms: _296  and  _299
REMARK  112  A    between atoms: _299  and  _300
REMARK  113  A    between atoms: _303  and  _305
REMARK  114  A    between atoms: _305  and  _306
REMARK  115  A    between atoms: _310  and  _311
REMARK  116  A    between atoms: _317  and  _318
REMARK  117  A    between atoms: _323  and  _325
REMARK  118  A    between atoms: _325  and  _326
REMARK  119  A    between atoms: _325  and  _328
REMARK  120  A    between atoms: _330  and  _332
REMARK  121  A    between atoms: _332  and  _333
REMARK  122  A    between atoms: _332  and  _335
REMARK  123  A    between atoms: _335  and  _336
REMARK  124  A    between atoms: _339  and  _341
REMARK  125  A    between atoms: _341  and  _342
REMARK  126  A    between atoms: _341  and  _344
REMARK  127  A    between atoms: _347  and  _349
REMARK  128  A    between atoms: _349  and  _350
REMARK  129  A    between atoms: _349  and  _352
REMARK  130  A    between atoms: _352  and  _353
REMARK  131  A    between atoms: _363  and  _365
REMARK  132  A    between atoms: _365  and  _366
REMARK  133  A    between atoms: _365  and  _368
REMARK  134  A    between atoms: _368  and  _369
REMARK  135  A    between atoms: _374  and  _376
REMARK  136  A    between atoms: _376  and  _377
REMARK  137  A    between atoms: _376  and  _379
REMARK  138  A    between atoms: _379  and  _380
REMARK  139  A    between atoms: _380  and  _381
REMARK  140  A    between atoms: _381  and  _382
REMARK                            x       y       z     vdW  Elec       q    Type
REMARK                         _______ _______ _______ _____ _____    ______ ____
ROOT
ATOM      1  NE  ARG A   1      48.404  32.669  87.342  0.00  0.00    -0.265 N 
ATOM      2  CZ  ARG A   1      49.635  32.287  87.038  0.00  0.00    +0.342 C 
ATOM      3  NH2 ARG A   1      50.683  32.879  87.579  0.00  0.00    -0.292 N 
ATOM      4 HH21 ARG A   1      50.549  33.658  88.255  0.00  0.00    +0.255 HD
ATOM      5 HH22 ARG A   1      51.643  32.567  87.329  0.00  0.00    +0.255 HD
ATOM      6  NH1 ARG A   1      49.815  31.302  86.195  0.00  0.00    -0.292 N 
ATOM      7 HH11 ARG A   1      50.779  30.996  85.951  0.00  0.00    +0.255 HD
ATOM      8 HH12 ARG A   1      48.995  30.825  85.769  0.00  0.00    +0.255 HD
ATOM      9  HE  ARG A   1      47.614  32.168  86.888  0.00  0.00    +0.259 HD
ENDROOT
BRANCH   1  10
ATOM     10  CD  ARG A   1      48.083  33.742  88.268  0.00  0.00    +0.174 C 
BRANCH  10  11
ATOM     11  CG  ARG A   1      46.632  33.721  88.641  0.00  0.00    +0.045 C 
BRANCH  11  12
ATOM     12  CB  ARG A   1      46.230  34.963  89.402  0.00  0.00    +0.029 C 
BRANCH  12  13
ATOM     13  CA  ARG A   1      44.761  34.941  89.828  0.00  0.00    +0.133 C 
BRANCH  13  14
ATOM     14  N   ARG A   1      44.360  36.168  90.507  0.00  0.00    -0.239 NA
ATOM     15  H   ARG A   1      45.080  36.846  90.827  0.00  0.00    +0.142 HD
ENDBRANCH  13  14
BRANCH  13  16
ATOM     16  C   ARG A   1      44.508  33.761  90.747  0.00  0.00    +0.224 C 
ATOM     17  O   ARG A   1      44.826  33.814  91.934  0.00  0.00    -0.287 OA
ENDBRANCH  13  16
ENDBRANCH  12  13
ENDBRANCH  11  12
ENDBRANCH  10  11
ENDBRANCH   1  10
TORSDOF 6
REMARK  Name = ../refined-set-2016/4yha/4yha_pocket.pdb
REMARK  140 active torsions:
REMARK  status: ('A' for Active; 'I' for Inactive)
REMARK    1  A    between atoms: _1  and  _3
REMARK    2  A    between atoms: _3  and  _4
REMARK    3  A    between atoms: _3  and  _6
REMARK    4  A    between atoms: _6  and  _7
REMARK    5  A    between atoms: _17  and  _19
REMARK    6  A    between atoms: _19  and  _20
REMARK    7  A    between atoms: _19  and  _22
REMARK    8  A    between atoms: _22  and  _23
REMARK    9  A    between atoms: _28  and  _29
REMARK   10  A    between atoms: _31  and  _33
REMARK   11  A    between atoms: _33  and  _34
REMARK   12  A    between atoms: _33  and  _36
REMARK   13  A    between atoms: _36  and  _37
REMARK   14  A    between atoms: _40  and  _41
REMARK   15  A    between atoms: _46  and  _48
REMARK   16  A    between atoms: _48  and  _49
REMARK   17  A    between atoms: _48  and  _51
REMARK   18  A    between atoms: _51  and  _52
REMARK   19  A    between atoms: _55  and  _57
REMARK   20  A    between atoms: _57  and  _58
REMARK   21  A    between atoms: _57  and  _60
REMARK   22  A    between atoms: _60  and  _61
REMARK   23  A    between atoms: _66  and  _68
REMARK   24  A    between atoms: _68  and  _69
REMARK   25  A    between atoms: _68  and  _71
REMARK   26  A    between atoms: _71  and  _72
REMARK   27  A    between atoms: _75  and  _77
REMARK   28  A    between atoms: _77  and  _78
REMARK   29  A    between atoms: _77  and  _80
REMARK   30  A    between atoms: _80  and  _81
REMARK   31  A    between atoms: _81  and  _82
REMARK   32  A    between atoms: _82  and  _83
REMARK   33  A    between atoms: _83  and  _84
REMARK   34  A    between atoms: _88  and  _90
REMARK   35  A    between atoms: _90  and  _91
REMARK   36  A    between atoms: _90  and  _93
REMARK   37  A    between atoms: _93  and  _94
REMARK   38  A    between atoms: _96  and  _98
REMARK   39  A    between atoms: _98  and  _99
REMARK   40  A    between atoms: _98  and  _101
REMARK   41  A    between atoms: _101  and  _102
REMARK   42  A    between atoms: _105  and  _107
REMARK   43  A    between atoms: _107  and  _108
REMARK   44  A    between atoms: _107  and  _110
REMARK   45  A    between atoms: _110  and  _111
REMARK   46  A    between atoms: _116  and  _118
REMARK   47  A    between atoms: _118  and  _119
REMARK   48  A    between atoms: _118  and  _121
REMARK   49  A    between atoms: _124  and  _126
REMARK   50  A    between atoms: _137  and  _140
REMARK   51  A    between atoms: _140  and  _141
REMARK   52  A    between atoms: _149  and  _150
REMARK   53  A    between atoms: _158  and  _160
REMARK   54  A    between atoms: _160  and  _161
REMARK   55  A    between atoms: _160  and  _163
REMARK   56  A    between atoms: _163  and  _164
REMARK   57  A    between atoms: _164  and  _165
REMARK   58  A    between atoms: _168  and  _170
REMARK   59  A    between atoms: _170  and  _171
REMARK   60  A    between atoms: _170  and  _173
REMARK   61  A    between atoms: _173  and  _174
REMARK   62  A    between atoms: _180  and  _182
REMARK   63  A    between atoms: _182  and  _183
REMARK   64  A    between atoms: _182  and  _185
REMARK   65  A    between atoms: _185  and  _186
REMARK   66  A    between atoms: _188  and  _190
REMARK   67  A    between atoms: _190  and  _191
REMARK   68  A    between atoms: _194  and  _196
REMARK   69  A    between atoms: _196  and  _197
REMARK   70  A    between atoms: _196  and  _199
REMARK   71  A    between atoms: _199  and  _200
REMARK   72  A    between atoms: _201  and  ZN_391
REMARK   73  A    between atoms: _205  and  _207
REMARK   74  A    between atoms: _207  and  _208
REMARK   75  A    between atoms: _207  and  _210
REMARK   76  A    between atoms: _210  and  _211
REMARK   77  A    between atoms: _217  and  _219
REMARK   78  A    between atoms: _219  and  _220
REMARK   79  A    between atoms: _219  and  _222
REMARK   80  A    between atoms: _225  and  _227
REMARK   81  A    between atoms: _227  and  _228
REMARK   82  A    between atoms: _227  and  _230
REMARK   83  A    between atoms: _230  and  _231
REMARK   84  A    between atoms: _236  and  _238
REMARK   85  A    between atoms: _238  and  _239
REMARK   86  A    between atoms: _238  and  _241
REMARK   87  A    between atoms: _241  and  _242
REMARK   88  A    between atoms: _245  and  _247
REMARK   89  A    between atoms: _247  and  _248
REMARK   90  A    between atoms: _247  and  _250
REMARK   91  A    between atoms: _250  and  _251
REMARK   92  A    between atoms: _254  and  _256
REMARK   93  A    between atoms: _256  and  _257
REMARK   94  A    between atoms: _256  and  _259
REMARK   95  A    between atoms: _262  and  _264
REMARK   96  A    between atoms: _264  and  _265
REMARK   97  A    between atoms: _264  and  _267
REMARK   98  A    between atoms: _267  and  _268
REMARK   99  A    between atoms: _271  and  _273
REMARK  100  A    between atoms: _273  and  _274
REMARK  101  A    between atoms: _277  and  _279
REMARK  102  A    between atoms: _279  and  _280
REMARK  103  A    between atoms: _279  and  _282
REMARK  104  A    between atoms: _282  and  _283
REMARK  105  A    between atoms: _285  and  _287
REMARK  106  A    between atoms: _287  and  _288
REMARK  107  A    between atoms: _287  and  _290
REMARK  108  A    between atoms: _290  and  _291
REMARK  109  A    between atoms: _294  and  _296
REMARK  110  A    between atoms: _296  and  _297
REMARK  111  A    between atoms: _296  and  _299
REMARK  112  A    between atoms: _299  and  _300
REMARK  113  A    between atoms: _303  and  _305
REMARK  114  A    between atoms: _305  and  _306
REMARK  115  A    between atoms: _310  and  _311
REMARK  116  A    between atoms: _317  and  _318
REMARK  117  A    between atoms: _323  and  _325
REMARK  118  A    between atoms: _325  and  _326
REMARK  119  A    between atoms: _325  and  _328
REMARK  120  A    between atoms: _330  and  _332
REMARK  121  A    between atoms: _332  and  _333
REMARK  122  A    between atoms: _332  and  _335
REMARK  123  A    between atoms: _335  and  _336
REMARK  124  A    between atoms: _339  and  _341
REMARK  125  A    between atoms: _341  and  _342
REMARK  126  A    between atoms: _341  and  _344
REMARK  127  A    between atoms: _347  and  _349
REMARK  128  A    between atoms: _349  and  _350
REMARK  129  A    between atoms: _349  and  _352
REMARK  130  A    between atoms: _352  and  _353
REMARK  131  A    between atoms: _363  and  _365
REMARK  132  A    between atoms: _365  and  _366
REMARK  133  A    between atoms: _365  and  _368
REMARK  134  A    between atoms: _368  and  _369
REMARK  135  A    between atoms: _374  and  _376
REMARK  136  A    between atoms: _376  and  _377
REMARK  137  A    between atoms: _376  and  _379
REMARK  138  A    between atoms: _379  and  _380
REMARK  139  A    between atoms: _380  and  _381
REMARK  140  A    between atoms: _381  and  _382
REMARK                            x       y       z     vdW  Elec       q    Type
REMARK                         _______ _______ _______ _____ _____    ______ ____
ROOT
ATOM      1  O   HOH     1      47.213  39.015  89.472  0.00  0.00    +0.000 OA
ENDROOT
TORSDOF 0
REMARK  Name = ../refined-set-2016/4yha/4yha_pocket.pdb
REMARK  140 active torsions:
REMARK  status: ('A' for Active; 'I' for Inactive)
REMARK    1  A    between atoms: _1  and  _3
REMARK    2  A    between atoms: _3  and  _4
REMARK    3  A    between atoms: _3  and  _6
REMARK    4  A    between atoms: _6  and  _7
REMARK    5  A    between atoms: _17  and  _19
REMARK    6  A    between atoms: _19  and  _20
REMARK    7  A    between atoms: _19  and  _22
REMARK    8  A    between atoms: _22  and  _23
REMARK    9  A    between atoms: _28  and  _29
REMARK   10  A    between atoms: _31  and  _33
REMARK   11  A    between atoms: _33  and  _34
REMARK   12  A    between atoms: _33  and  _36
REMARK   13  A    between atoms: _36  and  _37
REMARK   14  A    between atoms: _40  and  _41
REMARK   15  A    between atoms: _46  and  _48
REMARK   16  A    between atoms: _48  and  _49
REMARK   17  A    between atoms: _48  and  _51
REMARK   18  A    between atoms: _51  and  _52
REMARK   19  A    between atoms: _55  and  _57
REMARK   20  A    between atoms: _57  and  _58
REMARK   21  A    between atoms: _57  and  _60
REMARK   22  A    between atoms: _60  and  _61
REMARK   23  A    between atoms: _66  and  _68
REMARK   24  A    between atoms: _68  and  _69
REMARK   25  A    between atoms: _68  and  _71
REMARK   26  A    between atoms: _71  and  _72
REMARK   27  A    between atoms: _75  and  _77
REMARK   28  A    between atoms: _77  and  _78
REMARK   29  A    between atoms: _77  and  _80
REMARK   30  A    between atoms: _80  and  _81
REMARK   31  A    between atoms: _81  and  _82
REMARK   32  A    between atoms: _82  and  _83
REMARK   33  A    between atoms: _83  and  _84
REMARK   34  A    between atoms: _88  and  _90
REMARK   35  A    between atoms: _90  and  _91
REMARK   36  A    between atoms: _90  and  _93
REMARK   37  A    between atoms: _93  and  _94
REMARK   38  A    between atoms: _96  and  _98
REMARK   39  A    between atoms: _98  and  _99
REMARK   40  A    between atoms: _98  and  _101
REMARK   41  A    between atoms: _101  and  _102
REMARK   42  A    between atoms: _105  and  _107
REMARK   43  A    between atoms: _107  and  _108
REMARK   44  A    between atoms: _107  and  _110
REMARK   45  A    between atoms: _110  and  _111
REMARK   46  A    between atoms: _116  and  _118
REMARK   47  A    between atoms: _118  and  _119
REMARK   48  A    between atoms: _118  and  _121
REMARK   49  A    between atoms: _124  and  _126
REMARK   50  A    between atoms: _137  and  _140
REMARK   51  A    between atoms: _140  and  _141
REMARK   52  A    between atoms: _149  and  _150
REMARK   53  A    between atoms: _158  and  _160
REMARK   54  A    between atoms: _160  and  _161
REMARK   55  A    between atoms: _160  and  _163
REMARK   56  A    between atoms: _163  and  _164
REMARK   57  A    between atoms: _164  and  _165
REMARK   58  A    between atoms: _168  and  _170
REMARK   59  A    between atoms: _170  and  _171
REMARK   60  A    between atoms: _170  and  _173
REMARK   61  A    between atoms: _173  and  _174
REMARK   62  A    between atoms: _180  and  _182
REMARK   63  A    between atoms: _182  and  _183
REMARK   64  A    between atoms: _182  and  _185
REMARK   65  A    between atoms: _185  and  _186
REMARK   66  A    between atoms: _188  and  _190
REMARK   67  A    between atoms: _190  and  _191
REMARK   68  A    between atoms: _194  and  _196
REMARK   69  A    between atoms: _196  and  _197
REMARK   70  A    between atoms: _196  and  _199
REMARK   71  A    between atoms: _199  and  _200
REMARK   72  A    between atoms: _201  and  ZN_391
REMARK   73  A    between atoms: _205  and  _207
REMARK   74  A    between atoms: _207  and  _208
REMARK   75  A    between atoms: _207  and  _210
REMARK   76  A    between atoms: _210  and  _211
REMARK   77  A    between atoms: _217  and  _219
REMARK   78  A    between atoms: _219  and  _220
REMARK   79  A    between atoms: _219  and  _222
REMARK   80  A    between atoms: _225  and  _227
REMARK   81  A    between atoms: _227  and  _228
REMARK   82  A    between atoms: _227  and  _230
REMARK   83  A    between atoms: _230  and  _231
REMARK   84  A    between atoms: _236  and  _238
REMARK   85  A    between atoms: _238  and  _239
REMARK   86  A    between atoms: _238  and  _241
REMARK   87  A    between atoms: _241  and  _242
REMARK   88  A    between atoms: _245  and  _247
REMARK   89  A    between atoms: _247  and  _248
REMARK   90  A    between atoms: _247  and  _250
REMARK   91  A    between atoms: _250  and  _251
REMARK   92  A    between atoms: _254  and  _256
REMARK   93  A    between atoms: _256  and  _257
REMARK   94  A    between atoms: _256  and  _259
REMARK   95  A    between atoms: _262  and  _264
REMARK   96  A    between atoms: _264  and  _265
REMARK   97  A    between atoms: _264  and  _267
REMARK   98  A    between atoms: _267  and  _268
REMARK   99  A    between atoms: _271  and  _273
REMARK  100  A    between atoms: _273  and  _274
REMARK  101  A    between atoms: _277  and  _279
REMARK  102  A    between atoms: _279  and  _280
REMARK  103  A    between atoms: _279  and  _282
REMARK  104  A    between atoms: _282  and  _283
REMARK  105  A    between atoms: _285  and  _287
REMARK  106  A    between atoms: _287  and  _288
REMARK  107  A    between atoms: _287  and  _290
REMARK  108  A    between atoms: _290  and  _291
REMARK  109  A    between atoms: _294  and  _296
REMARK  110  A    between atoms: _296  and  _297
REMARK  111  A    between atoms: _296  and  _299
REMARK  112  A    between atoms: _299  and  _300
REMARK  113  A    between atoms: _303  and  _305
REMARK  114  A    between atoms: _305  and  _306
REMARK  115  A    between atoms: _310  and  _311
REMARK  116  A    between atoms: _317  and  _318
REMARK  117  A    between atoms: _323  and  _325
REMARK  118  A    between atoms: _325  and  _326
REMARK  119  A    between atoms: _325  and  _328
REMARK  120  A    between atoms: _330  and  _332
REMARK  121  A    between atoms: _332  and  _333
REMARK  122  A    between atoms: _332  and  _335
REMARK  123  A    between atoms: _335  and  _336
REMARK  124  A    between atoms: _339  and  _341
REMARK  125  A    between atoms: _341  and  _342
REMARK  126  A    between atoms: _341  and  _344
REMARK  127  A    between atoms: _347  and  _349
REMARK  128  A    between atoms: _349  and  _350
REMARK  129  A    between atoms: _349  and  _352
REMARK  130  A    between atoms: _352  and  _353
REMARK  131  A    between atoms: _363  and  _365
REMARK  132  A    between atoms: _365  and  _366
REMARK  133  A    between atoms: _365  and  _368
REMARK  134  A    between atoms: _368  and  _369
REMARK  135  A    between atoms: _374  and  _376
REMARK  136  A    between atoms: _376  and  _377
REMARK  137  A    between atoms: _376  and  _379
REMARK  138  A    between atoms: _379  and  _380
REMARK  139  A    between atoms: _380  and  _381
REMARK  140  A    between atoms: _381  and  _382
REMARK                            x       y       z     vdW  Elec       q    Type
REMARK                         _______ _______ _______ _____ _____    ______ ____
ROOT
ATOM      1  O   HOH     1      61.364  45.774  82.455  0.00  0.00    +0.000 OA
ENDROOT
TORSDOF 0
REMARK  Name = ../refined-set-2016/4yha/4yha_pocket.pdb
REMARK  140 active torsions:
REMARK  status: ('A' for Active; 'I' for Inactive)
REMARK    1  A    between atoms: _1  and  _3
REMARK    2  A    between atoms: _3  and  _4
REMARK    3  A    between atoms: _3  and  _6
REMARK    4  A    between atoms: _6  and  _7
REMARK    5  A    between atoms: _17  and  _19
REMARK    6  A    between atoms: _19  and  _20
REMARK    7  A    between atoms: _19  and  _22
REMARK    8  A    between atoms: _22  and  _23
REMARK    9  A    between atoms: _28  and  _29
REMARK   10  A    between atoms: _31  and  _33
REMARK   11  A    between atoms: _33  and  _34
REMARK   12  A    between atoms: _33  and  _36
REMARK   13  A    between atoms: _36  and  _37
REMARK   14  A    between atoms: _40  and  _41
REMARK   15  A    between atoms: _46  and  _48
REMARK   16  A    between atoms: _48  and  _49
REMARK   17  A    between atoms: _48  and  _51
REMARK   18  A    between atoms: _51  and  _52
REMARK   19  A    between atoms: _55  and  _57
REMARK   20  A    between atoms: _57  and  _58
REMARK   21  A    between atoms: _57  and  _60
REMARK   22  A    between atoms: _60  and  _61
REMARK   23  A    between atoms: _66  and  _68
REMARK   24  A    between atoms: _68  and  _69
REMARK   25  A    between atoms: _68  and  _71
REMARK   26  A    between atoms: _71  and  _72
REMARK   27  A    between atoms: _75  and  _77
REMARK   28  A    between atoms: _77  and  _78
REMARK   29  A    between atoms: _77  and  _80
REMARK   30  A    between atoms: _80  and  _81
REMARK   31  A    between atoms: _81  and  _82
REMARK   32  A    between atoms: _82  and  _83
REMARK   33  A    between atoms: _83  and  _84
REMARK   34  A    between atoms: _88  and  _90
REMARK   35  A    between atoms: _90  and  _91
REMARK   36  A    between atoms: _90  and  _93
REMARK   37  A    between atoms: _93  and  _94
REMARK   38  A    between atoms: _96  and  _98
REMARK   39  A    between atoms: _98  and  _99
REMARK   40  A    between atoms: _98  and  _101
REMARK   41  A    between atoms: _101  and  _102
REMARK   42  A    between atoms: _105  and  _107
REMARK   43  A    between atoms: _107  and  _108
REMARK   44  A    between atoms: _107  and  _110
REMARK   45  A    between atoms: _110  and  _111
REMARK   46  A    between atoms: _116  and  _118
REMARK   47  A    between atoms: _118  and  _119
REMARK   48  A    between atoms: _118  and  _121
REMARK   49  A    between atoms: _124  and  _126
REMARK   50  A    between atoms: _137  and  _140
REMARK   51  A    between atoms: _140  and  _141
REMARK   52  A    between atoms: _149  and  _150
REMARK   53  A    between atoms: _158  and  _160
REMARK   54  A    between atoms: _160  and  _161
REMARK   55  A    between atoms: _160  and  _163
REMARK   56  A    between atoms: _163  and  _164
REMARK   57  A    between atoms: _164  and  _165
REMARK   58  A    between atoms: _168  and  _170
REMARK   59  A    between atoms: _170  and  _171
REMARK   60  A    between atoms: _170  and  _173
REMARK   61  A    between atoms: _173  and  _174
REMARK   62  A    between atoms: _180  and  _182
REMARK   63  A    between atoms: _182  and  _183
REMARK   64  A    between atoms: _182  and  _185
REMARK   65  A    between atoms: _185  and  _186
REMARK   66  A    between atoms: _188  and  _190
REMARK   67  A    between atoms: _190  and  _191
REMARK   68  A    between atoms: _194  and  _196
REMARK   69  A    between atoms: _196  and  _197
REMARK   70  A    between atoms: _196  and  _199
REMARK   71  A    between atoms: _199  and  _200
REMARK   72  A    between atoms: _201  and  ZN_391
REMARK   73  A    between atoms: _205  and  _207
REMARK   74  A    between atoms: _207  and  _208
REMARK   75  A    between atoms: _207  and  _210
REMARK   76  A    between atoms: _210  and  _211
REMARK   77  A    between atoms: _217  and  _219
REMARK   78  A    between atoms: _219  and  _220
REMARK   79  A    between atoms: _219  and  _222
REMARK   80  A    between atoms: _225  and  _227
REMARK   81  A    between atoms: _227  and  _228
REMARK   82  A    between atoms: _227  and  _230
REMARK   83  A    between atoms: _230  and  _231
REMARK   84  A    between atoms: _236  and  _238
REMARK   85  A    between atoms: _238  and  _239
REMARK   86  A    between atoms: _238  and  _241
REMARK   87  A    between atoms: _241  and  _242
REMARK   88  A    between atoms: _245  and  _247
REMARK   89  A    between atoms: _247  and  _248
REMARK   90  A    between atoms: _247  and  _250
REMARK   91  A    between atoms: _250  and  _251
REMARK   92  A    between atoms: _254  and  _256
REMARK   93  A    between atoms: _256  and  _257
REMARK   94  A    between atoms: _256  and  _259
REMARK   95  A    between atoms: _262  and  _264
REMARK   96  A    between atoms: _264  and  _265
REMARK   97  A    between atoms: _264  and  _267
REMARK   98  A    between atoms: _267  and  _268
REMARK   99  A    between atoms: _271  and  _273
REMARK  100  A    between atoms: _273  and  _274
REMARK  101  A    between atoms: _277  and  _279
REMARK  102  A    between atoms: _279  and  _280
REMARK  103  A    between atoms: _279  and  _282
REMARK  104  A    between atoms: _282  and  _283
REMARK  105  A    between atoms: _285  and  _287
REMARK  106  A    between atoms: _287  and  _288
REMARK  107  A    between atoms: _287  and  _290
REMARK  108  A    between atoms: _290  and  _291
REMARK  109  A    between atoms: _294  and  _296
REMARK  110  A    between atoms: _296  and  _297
REMARK  111  A    between atoms: _296  and  _299
REMARK  112  A    between atoms: _299  and  _300
REMARK  113  A    between atoms: _303  and  _305
REMARK  114  A    between atoms: _305  and  _306
REMARK  115  A    between atoms: _310  and  _311
REMARK  116  A    between atoms: _317  and  _318
REMARK  117  A    between atoms: _323  and  _325
REMARK  118  A    between atoms: _325  and  _326
REMARK  119  A    between atoms: _325  and  _328
REMARK  120  A    between atoms: _330  and  _332
REMARK  121  A    between atoms: _332  and  _333
REMARK  122  A    between atoms: _332  and  _335
REMARK  123  A    between atoms: _335  and  _336
REMARK  124  A    between atoms: _339  and  _341
REMARK  125  A    between atoms: _341  and  _342
REMARK  126  A    between atoms: _341  and  _344
REMARK  127  A    between atoms: _347  and  _349
REMARK  128  A    between atoms: _349  and  _350
REMARK  129  A    between atoms: _349  and  _352
REMARK  130  A    between atoms: _352  and  _353
REMARK  131  A    between atoms: _363  and  _365
REMARK  132  A    between atoms: _365  and  _366
REMARK  133  A    between atoms: _365  and  _368
REMARK  134  A    between atoms: _368  and  _369
REMARK  135  A    between atoms: _374  and  _376
REMARK  136  A    between atoms: _376  and  _377
REMARK  137  A    between atoms: _376  and  _379
REMARK  138  A    between atoms: _379  and  _380
REMARK  139  A    between atoms: _380  and  _381
REMARK  140  A    between atoms: _381  and  _382
REMARK                            x       y       z     vdW  Elec       q    Type
REMARK                         _______ _______ _______ _____ _____    ______ ____
ROOT
ATOM      1  O   HOH     1      59.805  44.271  82.613  0.00  0.00    +0.000 OA
ENDROOT
TORSDOF 0
