REMARK  Name = ../refined-set-2016/4aoi/4aoi_pocket.pdb
REMARK  219 active torsions:
REMARK  status: ('A' for Active; 'I' for Inactive)
REMARK    1  A    between atoms: _1  and  _3
REMARK    2  A    between atoms: _3  and  _4
REMARK    3  A    between atoms: _3  and  _6
REMARK    4  A    between atoms: _9  and  _11
REMARK    5  A    between atoms: _11  and  _12
REMARK    6  A    between atoms: _11  and  _14
REMARK    7  A    between atoms: _14  and  _15
REMARK    8  A    between atoms: _18  and  _20
REMARK    9  A    between atoms: _20  and  _21
REMARK   10  A    between atoms: _23  and  _25
REMARK   11  A    between atoms: _25  and  _26
REMARK   12  A    between atoms: _25  and  _28
REMARK   13  A    between atoms: _28  and  _29
REMARK   14  A    between atoms: _29  and  _30
REMARK   15  A    between atoms: _30  and  _31
REMARK   16  A    between atoms: _40  and  _42
REMARK   17  A    between atoms: _42  and  _43
REMARK   18  A    between atoms: _45  and  _47
REMARK   19  A    between atoms: _47  and  _48
REMARK   20  A    between atoms: _47  and  _50
REMARK   21  A    between atoms: _52  and  _54
REMARK   22  A    between atoms: _54  and  _55
REMARK   23  A    between atoms: _54  and  _57
REMARK   24  A    between atoms: _60  and  _62
REMARK   25  A    between atoms: _62  and  _63
REMARK   26  A    between atoms: _62  and  _65
REMARK   27  A    between atoms: _65  and  _66
REMARK   28  A    between atoms: _71  and  _72
REMARK   29  A    between atoms: _74  and  _76
REMARK   30  A    between atoms: _76  and  _77
REMARK   31  A    between atoms: _76  and  _79
REMARK   32  A    between atoms: _79  and  _80
REMARK   33  A    between atoms: _85  and  _87
REMARK   34  A    between atoms: _87  and  _88
REMARK   35  A    between atoms: _90  and  _92
REMARK   36  A    between atoms: _92  and  _93
REMARK   37  A    between atoms: _92  and  _95
REMARK   38  A    between atoms: _95  and  _96
REMARK   39  A    between atoms: _101  and  _103
REMARK   40  A    between atoms: _103  and  _104
REMARK   41  A    between atoms: _103  and  _106
REMARK   42  A    between atoms: _108  and  _110
REMARK   43  A    between atoms: _110  and  _111
REMARK   44  A    between atoms: _114  and  _116
REMARK   45  A    between atoms: _116  and  _117
REMARK   46  A    between atoms: _116  and  _119
REMARK   47  A    between atoms: _122  and  _124
REMARK   48  A    between atoms: _124  and  _125
REMARK   49  A    between atoms: _124  and  _127
REMARK   50  A    between atoms: _127  and  _128
REMARK   51  A    between atoms: _128  and  _129
REMARK   52  A    between atoms: _129  and  _130
REMARK   53  A    between atoms: _130  and  _131
REMARK   54  A    between atoms: _135  and  _137
REMARK   55  A    between atoms: _137  and  _138
REMARK   56  A    between atoms: _137  and  _140
REMARK   57  A    between atoms: _140  and  _141
REMARK   58  A    between atoms: _143  and  _145
REMARK   59  A    between atoms: _145  and  _146
REMARK   60  A    between atoms: _145  and  _148
REMARK   61  A    between atoms: _148  and  _149
REMARK   62  A    between atoms: _149  and  _150
REMARK   63  A    between atoms: _152  and  _154
REMARK   64  A    between atoms: _154  and  _155
REMARK   65  A    between atoms: _154  and  _157
REMARK   66  A    between atoms: _157  and  _158
REMARK   67  A    between atoms: _161  and  _163
REMARK   68  A    between atoms: _163  and  _164
REMARK   69  A    between atoms: _163  and  _166
REMARK   70  A    between atoms: _166  and  _167
REMARK   71  A    between atoms: _169  and  _171
REMARK   72  A    between atoms: _171  and  _172
REMARK   73  A    between atoms: _171  and  _174
REMARK   74  A    between atoms: _177  and  _179
REMARK   75  A    between atoms: _179  and  _180
REMARK   76  A    between atoms: _179  and  _182
REMARK   77  A    between atoms: _185  and  _187
REMARK   78  A    between atoms: _187  and  _188
REMARK   79  A    between atoms: _187  and  _190
REMARK   80  A    between atoms: _190  and  _191
REMARK   81  A    between atoms: _195  and  _196
REMARK   82  A    between atoms: _201  and  _203
REMARK   83  A    between atoms: _203  and  _204
REMARK   84  A    between atoms: _203  and  _206
REMARK   85  A    between atoms: _206  and  _207
REMARK   86  A    between atoms: _212  and  _213
REMARK   87  A    between atoms: _215  and  _217
REMARK   88  A    between atoms: _217  and  _218
REMARK   89  A    between atoms: _217  and  _220
REMARK   90  A    between atoms: _220  and  _221
REMARK   91  A    between atoms: _221  and  _222
REMARK   92  A    between atoms: _224  and  _226
REMARK   93  A    between atoms: _226  and  _227
REMARK   94  A    between atoms: _226  and  _229
REMARK   95  A    between atoms: _229  and  _230
REMARK   96  A    between atoms: _230  and  _231
REMARK   97  A    between atoms: _231  and  _232
REMARK   98  A    between atoms: _232  and  _233
REMARK   99  A    between atoms: _237  and  _239
REMARK  100  A    between atoms: _239  and  _240
REMARK  101  A    between atoms: _239  and  _242
REMARK  102  A    between atoms: _242  and  _243
REMARK  103  A    between atoms: _248  and  _250
REMARK  104  A    between atoms: _250  and  _251
REMARK  105  A    between atoms: _253  and  _255
REMARK  106  A    between atoms: _255  and  _256
REMARK  107  A    between atoms: _255  and  _258
REMARK  108  A    between atoms: _258  and  _259
REMARK  109  A    between atoms: _262  and  _264
REMARK  110  A    between atoms: _264  and  _265
REMARK  111  A    between atoms: _264  and  _267
REMARK  112  A    between atoms: _267  and  _268
REMARK  113  A    between atoms: _271  and  _273
REMARK  114  A    between atoms: _273  and  _274
REMARK  115  A    between atoms: _273  and  _276
REMARK  116  A    between atoms: _276  and  _277
REMARK  117  A    between atoms: _277  and  _278
REMARK  118  A    between atoms: _278  and  _279
REMARK  119  A    between atoms: _288  and  _290
REMARK  120  A    between atoms: _290  and  _291
REMARK  121  A    between atoms: _290  and  _293
REMARK  122  A    between atoms: _293  and  _294
REMARK  123  A    between atoms: _299  and  _301
REMARK  124  A    between atoms: _301  and  _302
REMARK  125  A    between atoms: _301  and  _304
REMARK  126  A    between atoms: _304  and  _305
REMARK  127  A    between atoms: _311  and  _313
REMARK  128  A    between atoms: _313  and  _314
REMARK  129  A    between atoms: _313  and  _316
REMARK  130  A    between atoms: _316  and  _317
REMARK  131  A    between atoms: _322  and  _324
REMARK  132  A    between atoms: _324  and  _325
REMARK  133  A    between atoms: _324  and  _327
REMARK  134  A    between atoms: _327  and  _328
REMARK  135  A    between atoms: _331  and  _333
REMARK  136  A    between atoms: _333  and  _334
REMARK  137  A    between atoms: _337  and  _339
REMARK  138  A    between atoms: _339  and  _340
REMARK  139  A    between atoms: _343  and  _345
REMARK  140  A    between atoms: _345  and  _346
REMARK  141  A    between atoms: _345  and  _348
REMARK  142  A    between atoms: _348  and  _349
REMARK  143  A    between atoms: _349  and  _350
REMARK  144  A    between atoms: _350  and  _351
REMARK  145  A    between atoms: _360  and  _362
REMARK  146  A    between atoms: _362  and  _363
REMARK  147  A    between atoms: _362  and  _365
REMARK  148  A    between atoms: _365  and  _366
REMARK  149  A    between atoms: _371  and  _373
REMARK  150  A    between atoms: _373  and  _374
REMARK  151  A    between atoms: _373  and  _376
REMARK  152  A    between atoms: _378  and  _380
REMARK  153  A    between atoms: _380  and  _381
REMARK  154  A    between atoms: _380  and  _383
REMARK  155  A    between atoms: _383  and  _384
REMARK  156  A    between atoms: _384  and  _385
REMARK  157  A    between atoms: _387  and  _389
REMARK  158  A    between atoms: _389  and  _390
REMARK  159  A    between atoms: _389  and  _392
REMARK  160  A    between atoms: _392  and  _393
REMARK  161  A    between atoms: _396  and  _398
REMARK  162  A    between atoms: _398  and  _399
REMARK  163  A    between atoms: _398  and  _401
REMARK  164  A    between atoms: _401  and  _402
REMARK  165  A    between atoms: _405  and  _407
REMARK  166  A    between atoms: _407  and  _408
REMARK  167  A    between atoms: _407  and  _410
REMARK  168  A    between atoms: _410  and  _411
REMARK  169  A    between atoms: _411  and  _412
REMARK  170  A    between atoms: _412  and  _413
REMARK  171  A    between atoms: _413  and  _414
REMARK  172  A    between atoms: _418  and  _420
REMARK  173  A    between atoms: _420  and  _421
REMARK  174  A    between atoms: _420  and  _423
REMARK  175  A    between atoms: _426  and  _428
REMARK  176  A    between atoms: _428  and  _429
REMARK  177  A    between atoms: _432  and  _434
REMARK  178  A    between atoms: _434  and  _435
REMARK  179  A    between atoms: _434  and  _437
REMARK  180  A    between atoms: _437  and  _438
REMARK  181  A    between atoms: _441  and  _443
REMARK  182  A    between atoms: _443  and  _444
REMARK  183  A    between atoms: _443  and  _446
REMARK  184  A    between atoms: _446  and  _447
REMARK  185  A    between atoms: _453  and  _455
REMARK  186  A    between atoms: _455  and  _456
REMARK  187  A    between atoms: _455  and  _458
REMARK  188  A    between atoms: _458  and  _459
REMARK  189  A    between atoms: _462  and  _464
REMARK  190  A    between atoms: _464  and  _465
REMARK  191  A    between atoms: _468  and  _470
REMARK  192  A    between atoms: _470  and  _471
REMARK  193  A    between atoms: _470  and  _473
REMARK  194  A    between atoms: _473  and  _474
REMARK  195  A    between atoms: _474  and  _475
REMARK  196  A    between atoms: _475  and  _476
REMARK  197  A    between atoms: _485  and  _487
REMARK  198  A    between atoms: _487  and  _488
REMARK  199  A    between atoms: _487  and  _490
REMARK  200  A    between atoms: _490  and  _491
REMARK  201  A    between atoms: _494  and  _496
REMARK  202  A    between atoms: _496  and  _497
REMARK  203  A    between atoms: _496  and  _499
REMARK  204  A    between atoms: _499  and  _500
REMARK  205  A    between atoms: _500  and  _501
REMARK  206  A    between atoms: _503  and  _505
REMARK  207  A    between atoms: _505  and  _506
REMARK  208  A    between atoms: _505  and  _508
REMARK  209  A    between atoms: _508  and  _509
REMARK  210  A    between atoms: _514  and  _515
REMARK  211  A    between atoms: _517  and  _519
REMARK  212  A    between atoms: _519  and  _520
REMARK  213  A    between atoms: _519  and  _522
REMARK  214  A    between atoms: _522  and  _523
REMARK  215  A    between atoms: _526  and  _528
REMARK  216  A    between atoms: _528  and  _529
REMARK  217  A    between atoms: _528  and  _531
REMARK  218  A    between atoms: _531  and  _532
REMARK  219  A    between atoms: _537  and  _538
REMARK                            x       y       z     vdW  Elec       q    Type
REMARK                         _______ _______ _______ _____ _____    ______ ____
ROOT
ATOM      1  C   GLY A   3      17.486  86.743   0.017  0.00  0.00    +0.243 C 
ATOM      2  O   GLY A   3      17.487  87.974  -0.045  0.00  0.00    -0.273 OA
ATOM      3  N   ARG A   4      16.393  86.014  -0.167  0.00  0.00    -0.297 N 
ATOM      4  H   ARG A   4      16.442  84.980  -0.068  0.00  0.00    +0.150 HD
ENDROOT
BRANCH   3   5
ATOM      5  CA  ARG A   4      15.127  86.644  -0.505  0.00  0.00    +0.149 C 
BRANCH   5   6
ATOM      6  C   ARG A   4      14.001  86.144   0.384  0.00  0.00    +0.241 C 
ATOM      7  N   GLY A   5      13.318  87.083   1.027  0.00  0.00    -0.296 N 
ATOM      8  H   GLY A   5      13.562  88.084   0.886  0.00  0.00    +0.150 HD
ATOM      9  O   ARG A   4      13.755  84.941   0.484  0.00  0.00    -0.273 OA
BRANCH   7  10
ATOM     10  CA  GLY A   5      12.237  86.729   1.922  0.00  0.00    +0.163 C 
BRANCH  10  11
ATOM     11  C   GLY A   5      10.940  87.420   1.558  0.00  0.00    +0.229 C 
ATOM     12  O   GLY A   5      10.901  88.279   0.681  0.00  0.00    -0.286 OA
ENDBRANCH  10  11
ENDBRANCH   7  10
ENDBRANCH   5   6
BRANCH   5  13
ATOM     13  CB  ARG A   4      14.787  86.387  -1.974  0.00  0.00    +0.033 C 
BRANCH  13  14
ATOM     14  CG  ARG A   4      15.823  86.942  -2.937  0.00  0.00    +0.045 C 
BRANCH  14  15
ATOM     15  CD  ARG A   4      15.433  86.709  -4.384  0.00  0.00    +0.174 C 
BRANCH  15  16
ATOM     16  NE  ARG A   4      16.442  87.243  -5.292  0.00  0.00    -0.265 N 
ATOM     17  CZ  ARG A   4      16.504  88.516  -5.667  0.00  0.00    +0.342 C 
ATOM     18  NH2 ARG A   4      15.612  89.389  -5.212  0.00  0.00    -0.292 N 
ATOM     19 HH21 ARG A   4      14.864  89.076  -4.561  0.00  0.00    +0.255 HD
ATOM     20 HH22 ARG A   4      15.662  90.385  -5.507  0.00  0.00    +0.255 HD
ATOM     21  NH1 ARG A   4      17.463  88.920  -6.491  0.00  0.00    -0.292 N 
ATOM     22 HH11 ARG A   4      17.511  89.917  -6.784  0.00  0.00    +0.255 HD
ATOM     23 HH12 ARG A   4      18.166  88.240  -6.843  0.00  0.00    +0.255 HD
ATOM     24  HE  ARG A   4      17.156  86.587  -5.669  0.00  0.00    +0.259 HD
ENDBRANCH  15  16
ENDBRANCH  14  15
ENDBRANCH  13  14
ENDBRANCH   5  13
ENDBRANCH   3   5
BRANCH   1  25
ATOM     25  CA  GLY A   3      18.769  85.993   0.304  0.00  0.00    +0.176 C 
BRANCH  25  28
ATOM     26  C   ILE A   2      21.139  86.388   0.011  0.00  0.00    +0.241 C 
ATOM     27  O   ILE A   2      21.441  85.347   0.596  0.00  0.00    -0.273 OA
ATOM     28  N   GLY A   3      19.887  86.800  -0.143  0.00  0.00    -0.295 N 
ATOM     29  H   GLY A   3      19.704  87.720  -0.593  0.00  0.00    +0.150 HD
BRANCH  26  30
ATOM     30  CA  ILE A   2      22.206  87.291  -0.595  0.00  0.00    +0.148 C 
BRANCH  30  32
ATOM     31  C   VAL A   1      21.748  89.044  -2.215  0.00  0.00    +0.238 C 
ATOM     32  N   ILE A   2      21.675  88.600  -0.961  0.00  0.00    -0.297 N 
ATOM     33  H   ILE A   2      21.233  89.195  -0.232  0.00  0.00    +0.150 HD
ATOM     34  O   VAL A   1      22.285  88.403  -3.120  0.00  0.00    -0.274 OA
BRANCH  31  35
ATOM     35  CA  VAL A   1      21.137  90.413  -2.499  0.00  0.00    +0.145 C 
BRANCH  35  36
ATOM     36  CB  VAL A   1      19.863  90.222  -3.353  0.00  0.00    +0.025 C 
ATOM     37  CG2 VAL A   1      18.863  89.335  -2.619  0.00  0.00    +0.002 C 
ATOM     38  CG1 VAL A   1      19.244  91.571  -3.667  0.00  0.00    +0.002 C 
ENDBRANCH  35  36
BRANCH  35  39
ATOM     39  N   VAL A   1      22.111  91.244  -3.198  0.00  0.00    -0.238 NA
ATOM     40  H   VAL A   1      22.064  91.314  -4.235  0.00  0.00    +0.142 HD
ENDBRANCH  35  39
ENDBRANCH  31  35
ENDBRANCH  30  32
BRANCH  30  41
ATOM     41  CB  ILE A   2      23.388  87.414   0.394  0.00  0.00    +0.027 C 
ATOM     42  CG2 ILE A   2      24.543  88.142  -0.276  0.00  0.00    +0.002 C 
BRANCH  41  43
ATOM     43  CG1 ILE A   2      22.957  88.167   1.655  0.00  0.00    +0.002 C 
ATOM     44  CD1 ILE A   2      24.096  88.401   2.632  0.00  0.00    +0.000 C 
ENDBRANCH  41  43
ENDBRANCH  30  41
ENDBRANCH  26  30
ENDBRANCH  25  28
ENDBRANCH   1  25
TORSDOF 17
REMARK  Name = ../refined-set-2016/4aoi/4aoi_pocket.pdb
REMARK  219 active torsions:
REMARK  status: ('A' for Active; 'I' for Inactive)
REMARK    1  A    between atoms: _1  and  _3
REMARK    2  A    between atoms: _3  and  _4
REMARK    3  A    between atoms: _3  and  _6
REMARK    4  A    between atoms: _9  and  _11
REMARK    5  A    between atoms: _11  and  _12
REMARK    6  A    between atoms: _11  and  _14
REMARK    7  A    between atoms: _14  and  _15
REMARK    8  A    between atoms: _18  and  _20
REMARK    9  A    between atoms: _20  and  _21
REMARK   10  A    between atoms: _23  and  _25
REMARK   11  A    between atoms: _25  and  _26
REMARK   12  A    between atoms: _25  and  _28
REMARK   13  A    between atoms: _28  and  _29
REMARK   14  A    between atoms: _29  and  _30
REMARK   15  A    between atoms: _30  and  _31
REMARK   16  A    between atoms: _40  and  _42
REMARK   17  A    between atoms: _42  and  _43
REMARK   18  A    between atoms: _45  and  _47
REMARK   19  A    between atoms: _47  and  _48
REMARK   20  A    between atoms: _47  and  _50
REMARK   21  A    between atoms: _52  and  _54
REMARK   22  A    between atoms: _54  and  _55
REMARK   23  A    between atoms: _54  and  _57
REMARK   24  A    between atoms: _60  and  _62
REMARK   25  A    between atoms: _62  and  _63
REMARK   26  A    between atoms: _62  and  _65
REMARK   27  A    between atoms: _65  and  _66
REMARK   28  A    between atoms: _71  and  _72
REMARK   29  A    between atoms: _74  and  _76
REMARK   30  A    between atoms: _76  and  _77
REMARK   31  A    between atoms: _76  and  _79
REMARK   32  A    between atoms: _79  and  _80
REMARK   33  A    between atoms: _85  and  _87
REMARK   34  A    between atoms: _87  and  _88
REMARK   35  A    between atoms: _90  and  _92
REMARK   36  A    between atoms: _92  and  _93
REMARK   37  A    between atoms: _92  and  _95
REMARK   38  A    between atoms: _95  and  _96
REMARK   39  A    between atoms: _101  and  _103
REMARK   40  A    between atoms: _103  and  _104
REMARK   41  A    between atoms: _103  and  _106
REMARK   42  A    between atoms: _108  and  _110
REMARK   43  A    between atoms: _110  and  _111
REMARK   44  A    between atoms: _114  and  _116
REMARK   45  A    between atoms: _116  and  _117
REMARK   46  A    between atoms: _116  and  _119
REMARK   47  A    between atoms: _122  and  _124
REMARK   48  A    between atoms: _124  and  _125
REMARK   49  A    between atoms: _124  and  _127
REMARK   50  A    between atoms: _127  and  _128
REMARK   51  A    between atoms: _128  and  _129
REMARK   52  A    between atoms: _129  and  _130
REMARK   53  A    between atoms: _130  and  _131
REMARK   54  A    between atoms: _135  and  _137
REMARK   55  A    between atoms: _137  and  _138
REMARK   56  A    between atoms: _137  and  _140
REMARK   57  A    between atoms: _140  and  _141
REMARK   58  A    between atoms: _143  and  _145
REMARK   59  A    between atoms: _145  and  _146
REMARK   60  A    between atoms: _145  and  _148
REMARK   61  A    between atoms: _148  and  _149
REMARK   62  A    between atoms: _149  and  _150
REMARK   63  A    between atoms: _152  and  _154
REMARK   64  A    between atoms: _154  and  _155
REMARK   65  A    between atoms: _154  and  _157
REMARK   66  A    between atoms: _157  and  _158
REMARK   67  A    between atoms: _161  and  _163
REMARK   68  A    between atoms: _163  and  _164
REMARK   69  A    between atoms: _163  and  _166
REMARK   70  A    between atoms: _166  and  _167
REMARK   71  A    between atoms: _169  and  _171
REMARK   72  A    between atoms: _171  and  _172
REMARK   73  A    between atoms: _171  and  _174
REMARK   74  A    between atoms: _177  and  _179
REMARK   75  A    between atoms: _179  and  _180
REMARK   76  A    between atoms: _179  and  _182
REMARK   77  A    between atoms: _185  and  _187
REMARK   78  A    between atoms: _187  and  _188
REMARK   79  A    between atoms: _187  and  _190
REMARK   80  A    between atoms: _190  and  _191
REMARK   81  A    between atoms: _195  and  _196
REMARK   82  A    between atoms: _201  and  _203
REMARK   83  A    between atoms: _203  and  _204
REMARK   84  A    between atoms: _203  and  _206
REMARK   85  A    between atoms: _206  and  _207
REMARK   86  A    between atoms: _212  and  _213
REMARK   87  A    between atoms: _215  and  _217
REMARK   88  A    between atoms: _217  and  _218
REMARK   89  A    between atoms: _217  and  _220
REMARK   90  A    between atoms: _220  and  _221
REMARK   91  A    between atoms: _221  and  _222
REMARK   92  A    between atoms: _224  and  _226
REMARK   93  A    between atoms: _226  and  _227
REMARK   94  A    between atoms: _226  and  _229
REMARK   95  A    between atoms: _229  and  _230
REMARK   96  A    between atoms: _230  and  _231
REMARK   97  A    between atoms: _231  and  _232
REMARK   98  A    between atoms: _232  and  _233
REMARK   99  A    between atoms: _237  and  _239
REMARK  100  A    between atoms: _239  and  _240
REMARK  101  A    between atoms: _239  and  _242
REMARK  102  A    between atoms: _242  and  _243
REMARK  103  A    between atoms: _248  and  _250
REMARK  104  A    between atoms: _250  and  _251
REMARK  105  A    between atoms: _253  and  _255
REMARK  106  A    between atoms: _255  and  _256
REMARK  107  A    between atoms: _255  and  _258
REMARK  108  A    between atoms: _258  and  _259
REMARK  109  A    between atoms: _262  and  _264
REMARK  110  A    between atoms: _264  and  _265
REMARK  111  A    between atoms: _264  and  _267
REMARK  112  A    between atoms: _267  and  _268
REMARK  113  A    between atoms: _271  and  _273
REMARK  114  A    between atoms: _273  and  _274
REMARK  115  A    between atoms: _273  and  _276
REMARK  116  A    between atoms: _276  and  _277
REMARK  117  A    between atoms: _277  and  _278
REMARK  118  A    between atoms: _278  and  _279
REMARK  119  A    between atoms: _288  and  _290
REMARK  120  A    between atoms: _290  and  _291
REMARK  121  A    between atoms: _290  and  _293
REMARK  122  A    between atoms: _293  and  _294
REMARK  123  A    between atoms: _299  and  _301
REMARK  124  A    between atoms: _301  and  _302
REMARK  125  A    between atoms: _301  and  _304
REMARK  126  A    between atoms: _304  and  _305
REMARK  127  A    between atoms: _311  and  _313
REMARK  128  A    between atoms: _313  and  _314
REMARK  129  A    between atoms: _313  and  _316
REMARK  130  A    between atoms: _316  and  _317
REMARK  131  A    between atoms: _322  and  _324
REMARK  132  A    between atoms: _324  and  _325
REMARK  133  A    between atoms: _324  and  _327
REMARK  134  A    between atoms: _327  and  _328
REMARK  135  A    between atoms: _331  and  _333
REMARK  136  A    between atoms: _333  and  _334
REMARK  137  A    between atoms: _337  and  _339
REMARK  138  A    between atoms: _339  and  _340
REMARK  139  A    between atoms: _343  and  _345
REMARK  140  A    between atoms: _345  and  _346
REMARK  141  A    between atoms: _345  and  _348
REMARK  142  A    between atoms: _348  and  _349
REMARK  143  A    between atoms: _349  and  _350
REMARK  144  A    between atoms: _350  and  _351
REMARK  145  A    between atoms: _360  and  _362
REMARK  146  A    between atoms: _362  and  _363
REMARK  147  A    between atoms: _362  and  _365
REMARK  148  A    between atoms: _365  and  _366
REMARK  149  A    between atoms: _371  and  _373
REMARK  150  A    between atoms: _373  and  _374
REMARK  151  A    between atoms: _373  and  _376
REMARK  152  A    between atoms: _378  and  _380
REMARK  153  A    between atoms: _380  and  _381
REMARK  154  A    between atoms: _380  and  _383
REMARK  155  A    between atoms: _383  and  _384
REMARK  156  A    between atoms: _384  and  _385
REMARK  157  A    between atoms: _387  and  _389
REMARK  158  A    between atoms: _389  and  _390
REMARK  159  A    between atoms: _389  and  _392
REMARK  160  A    between atoms: _392  and  _393
REMARK  161  A    between atoms: _396  and  _398
REMARK  162  A    between atoms: _398  and  _399
REMARK  163  A    between atoms: _398  and  _401
REMARK  164  A    between atoms: _401  and  _402
REMARK  165  A    between atoms: _405  and  _407
REMARK  166  A    between atoms: _407  and  _408
REMARK  167  A    between atoms: _407  and  _410
REMARK  168  A    between atoms: _410  and  _411
REMARK  169  A    between atoms: _411  and  _412
REMARK  170  A    between atoms: _412  and  _413
REMARK  171  A    between atoms: _413  and  _414
REMARK  172  A    between atoms: _418  and  _420
REMARK  173  A    between atoms: _420  and  _421
REMARK  174  A    between atoms: _420  and  _423
REMARK  175  A    between atoms: _426  and  _428
REMARK  176  A    between atoms: _428  and  _429
REMARK  177  A    between atoms: _432  and  _434
REMARK  178  A    between atoms: _434  and  _435
REMARK  179  A    between atoms: _434  and  _437
REMARK  180  A    between atoms: _437  and  _438
REMARK  181  A    between atoms: _441  and  _443
REMARK  182  A    between atoms: _443  and  _444
REMARK  183  A    between atoms: _443  and  _446
REMARK  184  A    between atoms: _446  and  _447
REMARK  185  A    between atoms: _453  and  _455
REMARK  186  A    between atoms: _455  and  _456
REMARK  187  A    between atoms: _455  and  _458
REMARK  188  A    between atoms: _458  and  _459
REMARK  189  A    between atoms: _462  and  _464
REMARK  190  A    between atoms: _464  and  _465
REMARK  191  A    between atoms: _468  and  _470
REMARK  192  A    between atoms: _470  and  _471
REMARK  193  A    between atoms: _470  and  _473
REMARK  194  A    between atoms: _473  and  _474
REMARK  195  A    between atoms: _474  and  _475
REMARK  196  A    between atoms: _475  and  _476
REMARK  197  A    between atoms: _485  and  _487
REMARK  198  A    between atoms: _487  and  _488
REMARK  199  A    between atoms: _487  and  _490
REMARK  200  A    between atoms: _490  and  _491
REMARK  201  A    between atoms: _494  and  _496
REMARK  202  A    between atoms: _496  and  _497
REMARK  203  A    between atoms: _496  and  _499
REMARK  204  A    between atoms: _499  and  _500
REMARK  205  A    between atoms: _500  and  _501
REMARK  206  A    between atoms: _503  and  _505
REMARK  207  A    between atoms: _505  and  _506
REMARK  208  A    between atoms: _505  and  _508
REMARK  209  A    between atoms: _508  and  _509
REMARK  210  A    between atoms: _514  and  _515
REMARK  211  A    between atoms: _517  and  _519
REMARK  212  A    between atoms: _519  and  _520
REMARK  213  A    between atoms: _519  and  _522
REMARK  214  A    between atoms: _522  and  _523
REMARK  215  A    between atoms: _526  and  _528
REMARK  216  A    between atoms: _528  and  _529
REMARK  217  A    between atoms: _528  and  _531
REMARK  218  A    between atoms: _531  and  _532
REMARK  219  A    between atoms: _537  and  _538
REMARK                            x       y       z     vdW  Elec       q    Type
REMARK                         _______ _______ _______ _____ _____    ______ ____
ROOT
ATOM      1  CA  TYR A   3      21.880  92.212   1.714  0.00  0.00    +0.153 C 
ENDROOT
BRANCH   1   3
ATOM      2  C   VAL A   2      20.059  90.590   1.903  0.00  0.00    +0.241 C 
ATOM      3  N   TYR A   3      20.844  91.507   2.466  0.00  0.00    -0.297 N 
ATOM      4  H   TYR A   3      20.715  91.729   3.474  0.00  0.00    +0.150 HD
ATOM      5  O   VAL A   2      20.184  90.211   0.737  0.00  0.00    -0.273 OA
BRANCH   2   6
ATOM      6  CA  VAL A   2      18.966  90.003   2.783  0.00  0.00    +0.148 C 
BRANCH   6   9
ATOM      7  C   CYS A   1      16.725  90.748   2.151  0.00  0.00    +0.239 C 
ATOM      8  O   CYS A   1      16.675  91.581   3.055  0.00  0.00    -0.274 OA
ATOM      9  N   VAL A   2      17.749  89.915   1.980  0.00  0.00    -0.297 N 
ATOM     10  H   VAL A   2      17.680  89.177   1.250  0.00  0.00    +0.150 HD
BRANCH   7  11
ATOM     11  CA  CYS A   1      15.581  90.610   1.152  0.00  0.00    +0.156 C 
BRANCH  11  12
ATOM     12  CB  CYS A   1      16.060  91.053  -0.231  0.00  0.00    +0.095 C 
ATOM     13  SG  CYS A   1      14.901  90.676  -1.557  0.00  0.00    -0.080 S 
ENDBRANCH  11  12
BRANCH  11  14
ATOM     14  N   CYS A   1      14.396  91.368   1.543  0.00  0.00    -0.237 NA
ATOM     15  H   CYS A   1      14.304  92.361   1.248  0.00  0.00    +0.142 HD
ENDBRANCH  11  14
ENDBRANCH   7  11
ENDBRANCH   6   9
BRANCH   6  16
ATOM     16  CB  VAL A   2      19.447  88.614   3.258  0.00  0.00    +0.027 C 
ATOM     17  CG2 VAL A   2      20.538  88.777   4.312  0.00  0.00    +0.002 C 
ATOM     18  CG1 VAL A   2      18.278  87.806   3.798  0.00  0.00    +0.002 C 
ENDBRANCH   6  16
ENDBRANCH   2   6
ENDBRANCH   1   3
BRANCH   1  19
ATOM     19  C   TYR A   3      23.236  92.123   2.407  0.00  0.00    +0.241 C 
ATOM     20  O   TYR A   3      23.315  92.000   3.630  0.00  0.00    -0.273 OA
ATOM     21  N   HIS A   4      24.300  92.197   1.613  0.00  0.00    -0.297 N 
ATOM     22  H   HIS A   4      24.169  92.109   0.585  0.00  0.00    +0.150 HD
BRANCH  21  23
ATOM     23  CA  HIS A   4      25.645  92.398   2.138  0.00  0.00    +0.155 C 
BRANCH  23  24
ATOM     24  C   HIS A   4      25.705  93.728   2.883  0.00  0.00    +0.241 C 
ATOM     25  N   GLY A   5      26.131  93.680   4.141  0.00  0.00    -0.296 N 
ATOM     26  H   GLY A   5      26.354  92.763   4.577  0.00  0.00    +0.150 HD
ATOM     27  O   HIS A   4      25.368  94.777   2.332  0.00  0.00    -0.273 OA
BRANCH  25  28
ATOM     28  CA  GLY A   5      26.286  94.901   4.908  0.00  0.00    +0.163 C 
BRANCH  28  29
ATOM     29  C   GLY A   5      27.648  94.969   5.567  0.00  0.00    +0.229 C 
ATOM     30  O   GLY A   5      28.335  93.953   5.699  0.00  0.00    -0.286 OA
ENDBRANCH  28  29
ENDBRANCH  25  28
ENDBRANCH  23  24
BRANCH  23  31
ATOM     31  CB  HIS A   4      26.658  92.399   0.985  0.00  0.00    +0.076 C 
BRANCH  31  32
ATOM     32  CG  HIS A   4      28.037  92.828   1.384  0.00  0.00    +0.082 A 
ATOM     33  CD2 HIS A   4      28.646  92.874   2.593  0.00  0.00    +0.115 A 
ATOM     34  NE2 HIS A   4      29.921  93.344   2.388  0.00  0.00    -0.221 NA
ATOM     35  CE1 HIS A   4      30.091  93.579   1.100  0.00  0.00    +0.199 A 
ATOM     36  ND1 HIS A   4      28.969  93.276   0.471  0.00  0.00    -0.227 NA
ENDBRANCH  31  32
ENDBRANCH  23  31
ENDBRANCH  21  23
ENDBRANCH   1  19
BRANCH   1  37
ATOM     37  CB  TYR A   3      21.513  93.692   1.557  0.00  0.00    +0.055 C 
BRANCH  37  38
ATOM     38  CG  TYR A   3      20.189  93.937   0.874  0.00  0.00    -0.020 A 
ATOM     39  CD2 TYR A   3      19.015  94.049   1.610  0.00  0.00    -0.001 A 
ATOM     40  CE2 TYR A   3      17.798  94.267   0.987  0.00  0.00    +0.036 A 
ATOM     41  CZ  TYR A   3      17.748  94.375  -0.388  0.00  0.00    +0.134 A 
ATOM     42  CE1 TYR A   3      18.900  94.270  -1.139  0.00  0.00    +0.036 A 
ATOM     43  CD1 TYR A   3      20.111  94.051  -0.507  0.00  0.00    -0.001 A 
BRANCH  41  44
ATOM     44  OH  TYR A   3      16.541  94.573  -1.019  0.00  0.00    -0.506 OA
ATOM     45  HH  TYR A   3      16.686  94.627  -1.997  0.00  0.00    +0.292 HD
ENDBRANCH  41  44
ENDBRANCH  37  38
ENDBRANCH   1  37
TORSDOF 17
REMARK  Name = ../refined-set-2016/4aoi/4aoi_pocket.pdb
REMARK  219 active torsions:
REMARK  status: ('A' for Active; 'I' for Inactive)
REMARK    1  A    between atoms: _1  and  _3
REMARK    2  A    between atoms: _3  and  _4
REMARK    3  A    between atoms: _3  and  _6
REMARK    4  A    between atoms: _9  and  _11
REMARK    5  A    between atoms: _11  and  _12
REMARK    6  A    between atoms: _11  and  _14
REMARK    7  A    between atoms: _14  and  _15
REMARK    8  A    between atoms: _18  and  _20
REMARK    9  A    between atoms: _20  and  _21
REMARK   10  A    between atoms: _23  and  _25
REMARK   11  A    between atoms: _25  and  _26
REMARK   12  A    between atoms: _25  and  _28
REMARK   13  A    between atoms: _28  and  _29
REMARK   14  A    between atoms: _29  and  _30
REMARK   15  A    between atoms: _30  and  _31
REMARK   16  A    between atoms: _40  and  _42
REMARK   17  A    between atoms: _42  and  _43
REMARK   18  A    between atoms: _45  and  _47
REMARK   19  A    between atoms: _47  and  _48
REMARK   20  A    between atoms: _47  and  _50
REMARK   21  A    between atoms: _52  and  _54
REMARK   22  A    between atoms: _54  and  _55
REMARK   23  A    between atoms: _54  and  _57
REMARK   24  A    between atoms: _60  and  _62
REMARK   25  A    between atoms: _62  and  _63
REMARK   26  A    between atoms: _62  and  _65
REMARK   27  A    between atoms: _65  and  _66
REMARK   28  A    between atoms: _71  and  _72
REMARK   29  A    between atoms: _74  and  _76
REMARK   30  A    between atoms: _76  and  _77
REMARK   31  A    between atoms: _76  and  _79
REMARK   32  A    between atoms: _79  and  _80
REMARK   33  A    between atoms: _85  and  _87
REMARK   34  A    between atoms: _87  and  _88
REMARK   35  A    between atoms: _90  and  _92
REMARK   36  A    between atoms: _92  and  _93
REMARK   37  A    between atoms: _92  and  _95
REMARK   38  A    between atoms: _95  and  _96
REMARK   39  A    between atoms: _101  and  _103
REMARK   40  A    between atoms: _103  and  _104
REMARK   41  A    between atoms: _103  and  _106
REMARK   42  A    between atoms: _108  and  _110
REMARK   43  A    between atoms: _110  and  _111
REMARK   44  A    between atoms: _114  and  _116
REMARK   45  A    between atoms: _116  and  _117
REMARK   46  A    between atoms: _116  and  _119
REMARK   47  A    between atoms: _122  and  _124
REMARK   48  A    between atoms: _124  and  _125
REMARK   49  A    between atoms: _124  and  _127
REMARK   50  A    between atoms: _127  and  _128
REMARK   51  A    between atoms: _128  and  _129
REMARK   52  A    between atoms: _129  and  _130
REMARK   53  A    between atoms: _130  and  _131
REMARK   54  A    between atoms: _135  and  _137
REMARK   55  A    between atoms: _137  and  _138
REMARK   56  A    between atoms: _137  and  _140
REMARK   57  A    between atoms: _140  and  _141
REMARK   58  A    between atoms: _143  and  _145
REMARK   59  A    between atoms: _145  and  _146
REMARK   60  A    between atoms: _145  and  _148
REMARK   61  A    between atoms: _148  and  _149
REMARK   62  A    between atoms: _149  and  _150
REMARK   63  A    between atoms: _152  and  _154
REMARK   64  A    between atoms: _154  and  _155
REMARK   65  A    between atoms: _154  and  _157
REMARK   66  A    between atoms: _157  and  _158
REMARK   67  A    between atoms: _161  and  _163
REMARK   68  A    between atoms: _163  and  _164
REMARK   69  A    between atoms: _163  and  _166
REMARK   70  A    between atoms: _166  and  _167
REMARK   71  A    between atoms: _169  and  _171
REMARK   72  A    between atoms: _171  and  _172
REMARK   73  A    between atoms: _171  and  _174
REMARK   74  A    between atoms: _177  and  _179
REMARK   75  A    between atoms: _179  and  _180
REMARK   76  A    between atoms: _179  and  _182
REMARK   77  A    between atoms: _185  and  _187
REMARK   78  A    between atoms: _187  and  _188
REMARK   79  A    between atoms: _187  and  _190
REMARK   80  A    between atoms: _190  and  _191
REMARK   81  A    between atoms: _195  and  _196
REMARK   82  A    between atoms: _201  and  _203
REMARK   83  A    between atoms: _203  and  _204
REMARK   84  A    between atoms: _203  and  _206
REMARK   85  A    between atoms: _206  and  _207
REMARK   86  A    between atoms: _212  and  _213
REMARK   87  A    between atoms: _215  and  _217
REMARK   88  A    between atoms: _217  and  _218
REMARK   89  A    between atoms: _217  and  _220
REMARK   90  A    between atoms: _220  and  _221
REMARK   91  A    between atoms: _221  and  _222
REMARK   92  A    between atoms: _224  and  _226
REMARK   93  A    between atoms: _226  and  _227
REMARK   94  A    between atoms: _226  and  _229
REMARK   95  A    between atoms: _229  and  _230
REMARK   96  A    between atoms: _230  and  _231
REMARK   97  A    between atoms: _231  and  _232
REMARK   98  A    between atoms: _232  and  _233
REMARK   99  A    between atoms: _237  and  _239
REMARK  100  A    between atoms: _239  and  _240
REMARK  101  A    between atoms: _239  and  _242
REMARK  102  A    between atoms: _242  and  _243
REMARK  103  A    between atoms: _248  and  _250
REMARK  104  A    between atoms: _250  and  _251
REMARK  105  A    between atoms: _253  and  _255
REMARK  106  A    between atoms: _255  and  _256
REMARK  107  A    between atoms: _255  and  _258
REMARK  108  A    between atoms: _258  and  _259
REMARK  109  A    between atoms: _262  and  _264
REMARK  110  A    between atoms: _264  and  _265
REMARK  111  A    between atoms: _264  and  _267
REMARK  112  A    between atoms: _267  and  _268
REMARK  113  A    between atoms: _271  and  _273
REMARK  114  A    between atoms: _273  and  _274
REMARK  115  A    between atoms: _273  and  _276
REMARK  116  A    between atoms: _276  and  _277
REMARK  117  A    between atoms: _277  and  _278
REMARK  118  A    between atoms: _278  and  _279
REMARK  119  A    between atoms: _288  and  _290
REMARK  120  A    between atoms: _290  and  _291
REMARK  121  A    between atoms: _290  and  _293
REMARK  122  A    between atoms: _293  and  _294
REMARK  123  A    between atoms: _299  and  _301
REMARK  124  A    between atoms: _301  and  _302
REMARK  125  A    between atoms: _301  and  _304
REMARK  126  A    between atoms: _304  and  _305
REMARK  127  A    between atoms: _311  and  _313
REMARK  128  A    between atoms: _313  and  _314
REMARK  129  A    between atoms: _313  and  _316
REMARK  130  A    between atoms: _316  and  _317
REMARK  131  A    between atoms: _322  and  _324
REMARK  132  A    between atoms: _324  and  _325
REMARK  133  A    between atoms: _324  and  _327
REMARK  134  A    between atoms: _327  and  _328
REMARK  135  A    between atoms: _331  and  _333
REMARK  136  A    between atoms: _333  and  _334
REMARK  137  A    between atoms: _337  and  _339
REMARK  138  A    between atoms: _339  and  _340
REMARK  139  A    between atoms: _343  and  _345
REMARK  140  A    between atoms: _345  and  _346
REMARK  141  A    between atoms: _345  and  _348
REMARK  142  A    between atoms: _348  and  _349
REMARK  143  A    between atoms: _349  and  _350
REMARK  144  A    between atoms: _350  and  _351
REMARK  145  A    between atoms: _360  and  _362
REMARK  146  A    between atoms: _362  and  _363
REMARK  147  A    between atoms: _362  and  _365
REMARK  148  A    between atoms: _365  and  _366
REMARK  149  A    between atoms: _371  and  _373
REMARK  150  A    between atoms: _373  and  _374
REMARK  151  A    between atoms: _373  and  _376
REMARK  152  A    between atoms: _378  and  _380
REMARK  153  A    between atoms: _380  and  _381
REMARK  154  A    between atoms: _380  and  _383
REMARK  155  A    between atoms: _383  and  _384
REMARK  156  A    between atoms: _384  and  _385
REMARK  157  A    between atoms: _387  and  _389
REMARK  158  A    between atoms: _389  and  _390
REMARK  159  A    between atoms: _389  and  _392
REMARK  160  A    between atoms: _392  and  _393
REMARK  161  A    between atoms: _396  and  _398
REMARK  162  A    between atoms: _398  and  _399
REMARK  163  A    between atoms: _398  and  _401
REMARK  164  A    between atoms: _401  and  _402
REMARK  165  A    between atoms: _405  and  _407
REMARK  166  A    between atoms: _407  and  _408
REMARK  167  A    between atoms: _407  and  _410
REMARK  168  A    between atoms: _410  and  _411
REMARK  169  A    between atoms: _411  and  _412
REMARK  170  A    between atoms: _412  and  _413
REMARK  171  A    between atoms: _413  and  _414
REMARK  172  A    between atoms: _418  and  _420
REMARK  173  A    between atoms: _420  and  _421
REMARK  174  A    between atoms: _420  and  _423
REMARK  175  A    between atoms: _426  and  _428
REMARK  176  A    between atoms: _428  and  _429
REMARK  177  A    between atoms: _432  and  _434
REMARK  178  A    between atoms: _434  and  _435
REMARK  179  A    between atoms: _434  and  _437
REMARK  180  A    between atoms: _437  and  _438
REMARK  181  A    between atoms: _441  and  _443
REMARK  182  A    between atoms: _443  and  _444
REMARK  183  A    between atoms: _443  and  _446
REMARK  184  A    between atoms: _446  and  _447
REMARK  185  A    between atoms: _453  and  _455
REMARK  186  A    between atoms: _455  and  _456
REMARK  187  A    between atoms: _455  and  _458
REMARK  188  A    between atoms: _458  and  _459
REMARK  189  A    between atoms: _462  and  _464
REMARK  190  A    between atoms: _464  and  _465
REMARK  191  A    between atoms: _468  and  _470
REMARK  192  A    between atoms: _470  and  _471
REMARK  193  A    between atoms: _470  and  _473
REMARK  194  A    between atoms: _473  and  _474
REMARK  195  A    between atoms: _474  and  _475
REMARK  196  A    between atoms: _475  and  _476
REMARK  197  A    between atoms: _485  and  _487
REMARK  198  A    between atoms: _487  and  _488
REMARK  199  A    between atoms: _487  and  _490
REMARK  200  A    between atoms: _490  and  _491
REMARK  201  A    between atoms: _494  and  _496
REMARK  202  A    between atoms: _496  and  _497
REMARK  203  A    between atoms: _496  and  _499
REMARK  204  A    between atoms: _499  and  _500
REMARK  205  A    between atoms: _500  and  _501
REMARK  206  A    between atoms: _503  and  _505
REMARK  207  A    between atoms: _505  and  _506
REMARK  208  A    between atoms: _505  and  _508
REMARK  209  A    between atoms: _508  and  _509
REMARK  210  A    between atoms: _514  and  _515
REMARK  211  A    between atoms: _517  and  _519
REMARK  212  A    between atoms: _519  and  _520
REMARK  213  A    between atoms: _519  and  _522
REMARK  214  A    between atoms: _522  and  _523
REMARK  215  A    between atoms: _526  and  _528
REMARK  216  A    between atoms: _528  and  _529
REMARK  217  A    between atoms: _528  and  _531
REMARK  218  A    between atoms: _531  and  _532
REMARK  219  A    between atoms: _537  and  _538
REMARK                            x       y       z     vdW  Elec       q    Type
REMARK                         _______ _______ _______ _____ _____    ______ ____
ROOT
ATOM      1  CA  VAL A   4      21.282  92.896   6.677  0.00  0.00    +0.149 C 
ENDROOT
BRANCH   1   2
ATOM      2  C   VAL A   4      19.943  92.420   6.125  0.00  0.00    +0.241 C 
ATOM      3  N   LYS A   5      19.050  91.998   7.019  0.00  0.00    -0.297 N 
ATOM      4  H   LYS A   5      19.303  92.007   8.028  0.00  0.00    +0.150 HD
ATOM      5  O   VAL A   4      19.726  92.431   4.914  0.00  0.00    -0.273 OA
BRANCH   3   6
ATOM      6  CA  LYS A   5      17.726  91.523   6.624  0.00  0.00    +0.149 C 
BRANCH   6   7
ATOM      7  C   LYS A   5      16.701  92.655   6.680  0.00  0.00    +0.241 C 
ATOM      8  O   LYS A   5      16.472  93.253   7.734  0.00  0.00    -0.273 OA
ATOM      9  N   SER A   6      16.084  92.935   5.537  0.00  0.00    -0.296 N 
ATOM     10  H   SER A   6      16.336  92.395   4.684  0.00  0.00    +0.150 HD
BRANCH   9  11
ATOM     11  CA  SER A   6      15.066  93.973   5.438  0.00  0.00    +0.166 C 
BRANCH  11  12
ATOM     12  CB  SER A   6      13.701  93.472   5.902  0.00  0.00    +0.229 C 
ATOM     13  OG  SER A   6      13.359  92.298   5.720  0.00  0.00    -0.286 OA
ENDBRANCH  11  12
BRANCH  11  14
ATOM     14  C   SER A   6      14.965  94.463   3.991  0.00  0.00    +0.165 C 
BRANCH  14  15
ATOM     15  O   SER A   6      13.901  95.386   3.841  0.00  0.00    -0.380 OA
ATOM     16  H   SER A   6      13.857  95.687   2.899  0.00  0.00    +0.211 HD
ENDBRANCH  14  15
ENDBRANCH  11  14
ENDBRANCH   9  11
ENDBRANCH   6   7
BRANCH   6  17
ATOM     17  CB  LYS A   5      17.281  90.379   7.546  0.00  0.00    +0.029 C 
BRANCH  17  18
ATOM     18  CG  LYS A   5      15.858  89.868   7.300  0.00  0.00    +0.000 C 
BRANCH  18  19
ATOM     19  CD  LYS A   5      15.683  89.341   5.882  0.00  0.00    -0.024 C 
BRANCH  19  20
ATOM     20  CE  LYS A   5      14.428  88.478   5.756  0.00  0.00    -0.086 C 
BRANCH  20  21
ATOM     21  NZ  LYS A   5      13.205  89.197   6.230  0.00  0.00    +0.380 N 
ATOM     22  HZ1 LYS A   5      13.323  89.457   7.230  0.00  0.00    -0.089 HD
ATOM     23  HZ2 LYS A   5      12.377  88.576   6.127  0.00  0.00    -0.089 HD
ATOM     24  HZ3 LYS A   5      13.068  90.057   5.661  0.00  0.00    -0.089 HD
ENDBRANCH  20  21
ENDBRANCH  19  20
ENDBRANCH  18  19
ENDBRANCH  17  18
ENDBRANCH   6  17
ENDBRANCH   3   6
ENDBRANCH   1   2
BRANCH   1  27
ATOM     25  C   ALA A   3      22.893  91.155   7.204  0.00  0.00    +0.241 C 
ATOM     26  O   ALA A   3      22.537  91.109   8.383  0.00  0.00    -0.273 OA
ATOM     27  N   VAL A   4      22.334  91.961   6.311  0.00  0.00    -0.297 N 
ATOM     28  H   VAL A   4      22.657  91.923   5.323  0.00  0.00    +0.150 HD
BRANCH  25  29
ATOM     29  CA  ALA A   3      24.019  90.266   6.695  0.00  0.00    +0.149 C 
ATOM     30  CB  ALA A   3      23.568  88.808   6.692  0.00  0.00    +0.031 C 
BRANCH  29  32
ATOM     31  C   CYS A   2      26.298  91.017   7.120  0.00  0.00    +0.242 C 
ATOM     32  N   ALA A   3      25.186  90.429   7.550  0.00  0.00    -0.297 N 
ATOM     33  H   ALA A   3      25.149  90.075   8.527  0.00  0.00    +0.150 HD
ATOM     34  O   CYS A   2      26.464  91.362   5.954  0.00  0.00    -0.273 OA
BRANCH  31  35
ATOM     35  CA  CYS A   2      27.388  91.242   8.162  0.00  0.00    +0.160 C 
BRANCH  35  38
ATOM     36  C   HIS A   1      29.803  91.334   7.918  0.00  0.00    +0.239 C 
ATOM     37  O   HIS A   1      29.958  90.467   8.774  0.00  0.00    -0.274 OA
ATOM     38  N   CYS A   2      28.602  91.770   7.550  0.00  0.00    -0.296 N 
ATOM     39  H   CYS A   2      28.527  92.500   6.813  0.00  0.00    +0.150 HD
BRANCH  36  40
ATOM     40  CA  HIS A   1      31.011  91.970   7.230  0.00  0.00    +0.151 C 
BRANCH  40  41
ATOM     41  N   HIS A   1      31.922  92.451   8.265  0.00  0.00    -0.238 NA
ATOM     42  H   HIS A   1      32.822  91.952   8.415  0.00  0.00    +0.142 HD
ENDBRANCH  40  41
BRANCH  40  43
ATOM     43  CB  HIS A   1      31.732  90.933   6.359  0.00  0.00    +0.074 C 
BRANCH  43  44
ATOM     44  CG  HIS A   1      30.973  90.526   5.133  0.00  0.00    +0.082 A 
ATOM     45  CD2 HIS A   1      29.657  90.610   4.826  0.00  0.00    +0.115 A 
ATOM     46  NE2 HIS A   1      29.498  90.077   3.570  0.00  0.00    -0.221 NA
ATOM     47  CE1 HIS A   1      30.675  89.680   3.120  0.00  0.00    +0.199 A 
ATOM     48  ND1 HIS A   1      31.583  89.939   4.044  0.00  0.00    -0.227 NA
ENDBRANCH  43  44
ENDBRANCH  40  43
ENDBRANCH  36  40
ENDBRANCH  35  38
BRANCH  35  49
ATOM     49  CB  CYS A   2      26.883  92.205   9.244  0.00  0.00    +0.098 C 
ATOM     50  SG  CYS A   2      26.425  93.853   8.635  0.00  0.00    -0.080 S 
ENDBRANCH  35  49
ENDBRANCH  31  35
ENDBRANCH  29  32
ENDBRANCH  25  29
ENDBRANCH   1  27
BRANCH   1  51
ATOM     51  CB  VAL A   4      21.596  94.308   6.123  0.00  0.00    +0.027 C 
ATOM     52  CG2 VAL A   4      22.949  94.778   6.651  0.00  0.00    +0.002 C 
ATOM     53  CG1 VAL A   4      20.504  95.285   6.523  0.00  0.00    +0.002 C 
ENDBRANCH   1  51
TORSDOF 23
REMARK  Name = ../refined-set-2016/4aoi/4aoi_pocket.pdb
REMARK  219 active torsions:
REMARK  status: ('A' for Active; 'I' for Inactive)
REMARK    1  A    between atoms: _1  and  _3
REMARK    2  A    between atoms: _3  and  _4
REMARK    3  A    between atoms: _3  and  _6
REMARK    4  A    between atoms: _9  and  _11
REMARK    5  A    between atoms: _11  and  _12
REMARK    6  A    between atoms: _11  and  _14
REMARK    7  A    between atoms: _14  and  _15
REMARK    8  A    between atoms: _18  and  _20
REMARK    9  A    between atoms: _20  and  _21
REMARK   10  A    between atoms: _23  and  _25
REMARK   11  A    between atoms: _25  and  _26
REMARK   12  A    between atoms: _25  and  _28
REMARK   13  A    between atoms: _28  and  _29
REMARK   14  A    between atoms: _29  and  _30
REMARK   15  A    between atoms: _30  and  _31
REMARK   16  A    between atoms: _40  and  _42
REMARK   17  A    between atoms: _42  and  _43
REMARK   18  A    between atoms: _45  and  _47
REMARK   19  A    between atoms: _47  and  _48
REMARK   20  A    between atoms: _47  and  _50
REMARK   21  A    between atoms: _52  and  _54
REMARK   22  A    between atoms: _54  and  _55
REMARK   23  A    between atoms: _54  and  _57
REMARK   24  A    between atoms: _60  and  _62
REMARK   25  A    between atoms: _62  and  _63
REMARK   26  A    between atoms: _62  and  _65
REMARK   27  A    between atoms: _65  and  _66
REMARK   28  A    between atoms: _71  and  _72
REMARK   29  A    between atoms: _74  and  _76
REMARK   30  A    between atoms: _76  and  _77
REMARK   31  A    between atoms: _76  and  _79
REMARK   32  A    between atoms: _79  and  _80
REMARK   33  A    between atoms: _85  and  _87
REMARK   34  A    between atoms: _87  and  _88
REMARK   35  A    between atoms: _90  and  _92
REMARK   36  A    between atoms: _92  and  _93
REMARK   37  A    between atoms: _92  and  _95
REMARK   38  A    between atoms: _95  and  _96
REMARK   39  A    between atoms: _101  and  _103
REMARK   40  A    between atoms: _103  and  _104
REMARK   41  A    between atoms: _103  and  _106
REMARK   42  A    between atoms: _108  and  _110
REMARK   43  A    between atoms: _110  and  _111
REMARK   44  A    between atoms: _114  and  _116
REMARK   45  A    between atoms: _116  and  _117
REMARK   46  A    between atoms: _116  and  _119
REMARK   47  A    between atoms: _122  and  _124
REMARK   48  A    between atoms: _124  and  _125
REMARK   49  A    between atoms: _124  and  _127
REMARK   50  A    between atoms: _127  and  _128
REMARK   51  A    between atoms: _128  and  _129
REMARK   52  A    between atoms: _129  and  _130
REMARK   53  A    between atoms: _130  and  _131
REMARK   54  A    between atoms: _135  and  _137
REMARK   55  A    between atoms: _137  and  _138
REMARK   56  A    between atoms: _137  and  _140
REMARK   57  A    between atoms: _140  and  _141
REMARK   58  A    between atoms: _143  and  _145
REMARK   59  A    between atoms: _145  and  _146
REMARK   60  A    between atoms: _145  and  _148
REMARK   61  A    between atoms: _148  and  _149
REMARK   62  A    between atoms: _149  and  _150
REMARK   63  A    between atoms: _152  and  _154
REMARK   64  A    between atoms: _154  and  _155
REMARK   65  A    between atoms: _154  and  _157
REMARK   66  A    between atoms: _157  and  _158
REMARK   67  A    between atoms: _161  and  _163
REMARK   68  A    between atoms: _163  and  _164
REMARK   69  A    between atoms: _163  and  _166
REMARK   70  A    between atoms: _166  and  _167
REMARK   71  A    between atoms: _169  and  _171
REMARK   72  A    between atoms: _171  and  _172
REMARK   73  A    between atoms: _171  and  _174
REMARK   74  A    between atoms: _177  and  _179
REMARK   75  A    between atoms: _179  and  _180
REMARK   76  A    between atoms: _179  and  _182
REMARK   77  A    between atoms: _185  and  _187
REMARK   78  A    between atoms: _187  and  _188
REMARK   79  A    between atoms: _187  and  _190
REMARK   80  A    between atoms: _190  and  _191
REMARK   81  A    between atoms: _195  and  _196
REMARK   82  A    between atoms: _201  and  _203
REMARK   83  A    between atoms: _203  and  _204
REMARK   84  A    between atoms: _203  and  _206
REMARK   85  A    between atoms: _206  and  _207
REMARK   86  A    between atoms: _212  and  _213
REMARK   87  A    between atoms: _215  and  _217
REMARK   88  A    between atoms: _217  and  _218
REMARK   89  A    between atoms: _217  and  _220
REMARK   90  A    between atoms: _220  and  _221
REMARK   91  A    between atoms: _221  and  _222
REMARK   92  A    between atoms: _224  and  _226
REMARK   93  A    between atoms: _226  and  _227
REMARK   94  A    between atoms: _226  and  _229
REMARK   95  A    between atoms: _229  and  _230
REMARK   96  A    between atoms: _230  and  _231
REMARK   97  A    between atoms: _231  and  _232
REMARK   98  A    between atoms: _232  and  _233
REMARK   99  A    between atoms: _237  and  _239
REMARK  100  A    between atoms: _239  and  _240
REMARK  101  A    between atoms: _239  and  _242
REMARK  102  A    between atoms: _242  and  _243
REMARK  103  A    between atoms: _248  and  _250
REMARK  104  A    between atoms: _250  and  _251
REMARK  105  A    between atoms: _253  and  _255
REMARK  106  A    between atoms: _255  and  _256
REMARK  107  A    between atoms: _255  and  _258
REMARK  108  A    between atoms: _258  and  _259
REMARK  109  A    between atoms: _262  and  _264
REMARK  110  A    between atoms: _264  and  _265
REMARK  111  A    between atoms: _264  and  _267
REMARK  112  A    between atoms: _267  and  _268
REMARK  113  A    between atoms: _271  and  _273
REMARK  114  A    between atoms: _273  and  _274
REMARK  115  A    between atoms: _273  and  _276
REMARK  116  A    between atoms: _276  and  _277
REMARK  117  A    between atoms: _277  and  _278
REMARK  118  A    between atoms: _278  and  _279
REMARK  119  A    between atoms: _288  and  _290
REMARK  120  A    between atoms: _290  and  _291
REMARK  121  A    between atoms: _290  and  _293
REMARK  122  A    between atoms: _293  and  _294
REMARK  123  A    between atoms: _299  and  _301
REMARK  124  A    between atoms: _301  and  _302
REMARK  125  A    between atoms: _301  and  _304
REMARK  126  A    between atoms: _304  and  _305
REMARK  127  A    between atoms: _311  and  _313
REMARK  128  A    between atoms: _313  and  _314
REMARK  129  A    between atoms: _313  and  _316
REMARK  130  A    between atoms: _316  and  _317
REMARK  131  A    between atoms: _322  and  _324
REMARK  132  A    between atoms: _324  and  _325
REMARK  133  A    between atoms: _324  and  _327
REMARK  134  A    between atoms: _327  and  _328
REMARK  135  A    between atoms: _331  and  _333
REMARK  136  A    between atoms: _333  and  _334
REMARK  137  A    between atoms: _337  and  _339
REMARK  138  A    between atoms: _339  and  _340
REMARK  139  A    between atoms: _343  and  _345
REMARK  140  A    between atoms: _345  and  _346
REMARK  141  A    between atoms: _345  and  _348
REMARK  142  A    between atoms: _348  and  _349
REMARK  143  A    between atoms: _349  and  _350
REMARK  144  A    between atoms: _350  and  _351
REMARK  145  A    between atoms: _360  and  _362
REMARK  146  A    between atoms: _362  and  _363
REMARK  147  A    between atoms: _362  and  _365
REMARK  148  A    between atoms: _365  and  _366
REMARK  149  A    between atoms: _371  and  _373
REMARK  150  A    between atoms: _373  and  _374
REMARK  151  A    between atoms: _373  and  _376
REMARK  152  A    between atoms: _378  and  _380
REMARK  153  A    between atoms: _380  and  _381
REMARK  154  A    between atoms: _380  and  _383
REMARK  155  A    between atoms: _383  and  _384
REMARK  156  A    between atoms: _384  and  _385
REMARK  157  A    between atoms: _387  and  _389
REMARK  158  A    between atoms: _389  and  _390
REMARK  159  A    between atoms: _389  and  _392
REMARK  160  A    between atoms: _392  and  _393
REMARK  161  A    between atoms: _396  and  _398
REMARK  162  A    between atoms: _398  and  _399
REMARK  163  A    between atoms: _398  and  _401
REMARK  164  A    between atoms: _401  and  _402
REMARK  165  A    between atoms: _405  and  _407
REMARK  166  A    between atoms: _407  and  _408
REMARK  167  A    between atoms: _407  and  _410
REMARK  168  A    between atoms: _410  and  _411
REMARK  169  A    between atoms: _411  and  _412
REMARK  170  A    between atoms: _412  and  _413
REMARK  171  A    between atoms: _413  and  _414
REMARK  172  A    between atoms: _418  and  _420
REMARK  173  A    between atoms: _420  and  _421
REMARK  174  A    between atoms: _420  and  _423
REMARK  175  A    between atoms: _426  and  _428
REMARK  176  A    between atoms: _428  and  _429
REMARK  177  A    between atoms: _432  and  _434
REMARK  178  A    between atoms: _434  and  _435
REMARK  179  A    between atoms: _434  and  _437
REMARK  180  A    between atoms: _437  and  _438
REMARK  181  A    between atoms: _441  and  _443
REMARK  182  A    between atoms: _443  and  _444
REMARK  183  A    between atoms: _443  and  _446
REMARK  184  A    between atoms: _446  and  _447
REMARK  185  A    between atoms: _453  and  _455
REMARK  186  A    between atoms: _455  and  _456
REMARK  187  A    between atoms: _455  and  _458
REMARK  188  A    between atoms: _458  and  _459
REMARK  189  A    between atoms: _462  and  _464
REMARK  190  A    between atoms: _464  and  _465
REMARK  191  A    between atoms: _468  and  _470
REMARK  192  A    between atoms: _470  and  _471
REMARK  193  A    between atoms: _470  and  _473
REMARK  194  A    between atoms: _473  and  _474
REMARK  195  A    between atoms: _474  and  _475
REMARK  196  A    between atoms: _475  and  _476
REMARK  197  A    between atoms: _485  and  _487
REMARK  198  A    between atoms: _487  and  _488
REMARK  199  A    between atoms: _487  and  _490
REMARK  200  A    between atoms: _490  and  _491
REMARK  201  A    between atoms: _494  and  _496
REMARK  202  A    between atoms: _496  and  _497
REMARK  203  A    between atoms: _496  and  _499
REMARK  204  A    between atoms: _499  and  _500
REMARK  205  A    between atoms: _500  and  _501
REMARK  206  A    between atoms: _503  and  _505
REMARK  207  A    between atoms: _505  and  _506
REMARK  208  A    between atoms: _505  and  _508
REMARK  209  A    between atoms: _508  and  _509
REMARK  210  A    between atoms: _514  and  _515
REMARK  211  A    between atoms: _517  and  _519
REMARK  212  A    between atoms: _519  and  _520
REMARK  213  A    between atoms: _519  and  _522
REMARK  214  A    between atoms: _522  and  _523
REMARK  215  A    between atoms: _526  and  _528
REMARK  216  A    between atoms: _528  and  _529
REMARK  217  A    between atoms: _528  and  _531
REMARK  218  A    between atoms: _531  and  _532
REMARK  219  A    between atoms: _537  and  _538
REMARK                            x       y       z     vdW  Elec       q    Type
REMARK                         _______ _______ _______ _____ _____    ______ ____
ROOT
ATOM      1  CA  MET A   1      16.695  86.422  20.126  0.00  0.00    +0.134 C 
ENDROOT
BRANCH   1   2
ATOM      2  N   MET A   1      15.488  86.837  20.827  0.00  0.00    -0.239 NA
ATOM      3  H   MET A   1      14.692  87.203  20.266  0.00  0.00    +0.142 HD
ENDBRANCH   1   2
BRANCH   1   4
ATOM      4  C   MET A   1      17.973  86.996  20.747  0.00  0.00    +0.224 C 
ATOM      5  O   MET A   1      19.026  86.352  20.727  0.00  0.00    -0.287 OA
ENDBRANCH   1   4
BRANCH   1   6
ATOM      6  CB  MET A   1      16.576  86.867  18.671  0.00  0.00    +0.037 C 
BRANCH   6   7
ATOM      7  CG  MET A   1      17.717  86.499  17.776  0.00  0.00    +0.059 C 
BRANCH   7   8
ATOM      8  SD  MET A   1      17.347  87.071  16.109  0.00  0.00    -0.139 S 
ATOM      9  CE  MET A   1      18.453  86.030  15.179  0.00  0.00    +0.069 C 
ENDBRANCH   7   8
ENDBRANCH   6   7
ENDBRANCH   1   6
TORSDOF 5
REMARK  Name = ../refined-set-2016/4aoi/4aoi_pocket.pdb
REMARK  219 active torsions:
REMARK  status: ('A' for Active; 'I' for Inactive)
REMARK    1  A    between atoms: _1  and  _3
REMARK    2  A    between atoms: _3  and  _4
REMARK    3  A    between atoms: _3  and  _6
REMARK    4  A    between atoms: _9  and  _11
REMARK    5  A    between atoms: _11  and  _12
REMARK    6  A    between atoms: _11  and  _14
REMARK    7  A    between atoms: _14  and  _15
REMARK    8  A    between atoms: _18  and  _20
REMARK    9  A    between atoms: _20  and  _21
REMARK   10  A    between atoms: _23  and  _25
REMARK   11  A    between atoms: _25  and  _26
REMARK   12  A    between atoms: _25  and  _28
REMARK   13  A    between atoms: _28  and  _29
REMARK   14  A    between atoms: _29  and  _30
REMARK   15  A    between atoms: _30  and  _31
REMARK   16  A    between atoms: _40  and  _42
REMARK   17  A    between atoms: _42  and  _43
REMARK   18  A    between atoms: _45  and  _47
REMARK   19  A    between atoms: _47  and  _48
REMARK   20  A    between atoms: _47  and  _50
REMARK   21  A    between atoms: _52  and  _54
REMARK   22  A    between atoms: _54  and  _55
REMARK   23  A    between atoms: _54  and  _57
REMARK   24  A    between atoms: _60  and  _62
REMARK   25  A    between atoms: _62  and  _63
REMARK   26  A    between atoms: _62  and  _65
REMARK   27  A    between atoms: _65  and  _66
REMARK   28  A    between atoms: _71  and  _72
REMARK   29  A    between atoms: _74  and  _76
REMARK   30  A    between atoms: _76  and  _77
REMARK   31  A    between atoms: _76  and  _79
REMARK   32  A    between atoms: _79  and  _80
REMARK   33  A    between atoms: _85  and  _87
REMARK   34  A    between atoms: _87  and  _88
REMARK   35  A    between atoms: _90  and  _92
REMARK   36  A    between atoms: _92  and  _93
REMARK   37  A    between atoms: _92  and  _95
REMARK   38  A    between atoms: _95  and  _96
REMARK   39  A    between atoms: _101  and  _103
REMARK   40  A    between atoms: _103  and  _104
REMARK   41  A    between atoms: _103  and  _106
REMARK   42  A    between atoms: _108  and  _110
REMARK   43  A    between atoms: _110  and  _111
REMARK   44  A    between atoms: _114  and  _116
REMARK   45  A    between atoms: _116  and  _117
REMARK   46  A    between atoms: _116  and  _119
REMARK   47  A    between atoms: _122  and  _124
REMARK   48  A    between atoms: _124  and  _125
REMARK   49  A    between atoms: _124  and  _127
REMARK   50  A    between atoms: _127  and  _128
REMARK   51  A    between atoms: _128  and  _129
REMARK   52  A    between atoms: _129  and  _130
REMARK   53  A    between atoms: _130  and  _131
REMARK   54  A    between atoms: _135  and  _137
REMARK   55  A    between atoms: _137  and  _138
REMARK   56  A    between atoms: _137  and  _140
REMARK   57  A    between atoms: _140  and  _141
REMARK   58  A    between atoms: _143  and  _145
REMARK   59  A    between atoms: _145  and  _146
REMARK   60  A    between atoms: _145  and  _148
REMARK   61  A    between atoms: _148  and  _149
REMARK   62  A    between atoms: _149  and  _150
REMARK   63  A    between atoms: _152  and  _154
REMARK   64  A    between atoms: _154  and  _155
REMARK   65  A    between atoms: _154  and  _157
REMARK   66  A    between atoms: _157  and  _158
REMARK   67  A    between atoms: _161  and  _163
REMARK   68  A    between atoms: _163  and  _164
REMARK   69  A    between atoms: _163  and  _166
REMARK   70  A    between atoms: _166  and  _167
REMARK   71  A    between atoms: _169  and  _171
REMARK   72  A    between atoms: _171  and  _172
REMARK   73  A    between atoms: _171  and  _174
REMARK   74  A    between atoms: _177  and  _179
REMARK   75  A    between atoms: _179  and  _180
REMARK   76  A    between atoms: _179  and  _182
REMARK   77  A    between atoms: _185  and  _187
REMARK   78  A    between atoms: _187  and  _188
REMARK   79  A    between atoms: _187  and  _190
REMARK   80  A    between atoms: _190  and  _191
REMARK   81  A    between atoms: _195  and  _196
REMARK   82  A    between atoms: _201  and  _203
REMARK   83  A    between atoms: _203  and  _204
REMARK   84  A    between atoms: _203  and  _206
REMARK   85  A    between atoms: _206  and  _207
REMARK   86  A    between atoms: _212  and  _213
REMARK   87  A    between atoms: _215  and  _217
REMARK   88  A    between atoms: _217  and  _218
REMARK   89  A    between atoms: _217  and  _220
REMARK   90  A    between atoms: _220  and  _221
REMARK   91  A    between atoms: _221  and  _222
REMARK   92  A    between atoms: _224  and  _226
REMARK   93  A    between atoms: _226  and  _227
REMARK   94  A    between atoms: _226  and  _229
REMARK   95  A    between atoms: _229  and  _230
REMARK   96  A    between atoms: _230  and  _231
REMARK   97  A    between atoms: _231  and  _232
REMARK   98  A    between atoms: _232  and  _233
REMARK   99  A    between atoms: _237  and  _239
REMARK  100  A    between atoms: _239  and  _240
REMARK  101  A    between atoms: _239  and  _242
REMARK  102  A    between atoms: _242  and  _243
REMARK  103  A    between atoms: _248  and  _250
REMARK  104  A    between atoms: _250  and  _251
REMARK  105  A    between atoms: _253  and  _255
REMARK  106  A    between atoms: _255  and  _256
REMARK  107  A    between atoms: _255  and  _258
REMARK  108  A    between atoms: _258  and  _259
REMARK  109  A    between atoms: _262  and  _264
REMARK  110  A    between atoms: _264  and  _265
REMARK  111  A    between atoms: _264  and  _267
REMARK  112  A    between atoms: _267  and  _268
REMARK  113  A    between atoms: _271  and  _273
REMARK  114  A    between atoms: _273  and  _274
REMARK  115  A    between atoms: _273  and  _276
REMARK  116  A    between atoms: _276  and  _277
REMARK  117  A    between atoms: _277  and  _278
REMARK  118  A    between atoms: _278  and  _279
REMARK  119  A    between atoms: _288  and  _290
REMARK  120  A    between atoms: _290  and  _291
REMARK  121  A    between atoms: _290  and  _293
REMARK  122  A    between atoms: _293  and  _294
REMARK  123  A    between atoms: _299  and  _301
REMARK  124  A    between atoms: _301  and  _302
REMARK  125  A    between atoms: _301  and  _304
REMARK  126  A    between atoms: _304  and  _305
REMARK  127  A    between atoms: _311  and  _313
REMARK  128  A    between atoms: _313  and  _314
REMARK  129  A    between atoms: _313  and  _316
REMARK  130  A    between atoms: _316  and  _317
REMARK  131  A    between atoms: _322  and  _324
REMARK  132  A    between atoms: _324  and  _325
REMARK  133  A    between atoms: _324  and  _327
REMARK  134  A    between atoms: _327  and  _328
REMARK  135  A    between atoms: _331  and  _333
REMARK  136  A    between atoms: _333  and  _334
REMARK  137  A    between atoms: _337  and  _339
REMARK  138  A    between atoms: _339  and  _340
REMARK  139  A    between atoms: _343  and  _345
REMARK  140  A    between atoms: _345  and  _346
REMARK  141  A    between atoms: _345  and  _348
REMARK  142  A    between atoms: _348  and  _349
REMARK  143  A    between atoms: _349  and  _350
REMARK  144  A    between atoms: _350  and  _351
REMARK  145  A    between atoms: _360  and  _362
REMARK  146  A    between atoms: _362  and  _363
REMARK  147  A    between atoms: _362  and  _365
REMARK  148  A    between atoms: _365  and  _366
REMARK  149  A    between atoms: _371  and  _373
REMARK  150  A    between atoms: _373  and  _374
REMARK  151  A    between atoms: _373  and  _376
REMARK  152  A    between atoms: _378  and  _380
REMARK  153  A    between atoms: _380  and  _381
REMARK  154  A    between atoms: _380  and  _383
REMARK  155  A    between atoms: _383  and  _384
REMARK  156  A    between atoms: _384  and  _385
REMARK  157  A    between atoms: _387  and  _389
REMARK  158  A    between atoms: _389  and  _390
REMARK  159  A    between atoms: _389  and  _392
REMARK  160  A    between atoms: _392  and  _393
REMARK  161  A    between atoms: _396  and  _398
REMARK  162  A    between atoms: _398  and  _399
REMARK  163  A    between atoms: _398  and  _401
REMARK  164  A    between atoms: _401  and  _402
REMARK  165  A    between atoms: _405  and  _407
REMARK  166  A    between atoms: _407  and  _408
REMARK  167  A    between atoms: _407  and  _410
REMARK  168  A    between atoms: _410  and  _411
REMARK  169  A    between atoms: _411  and  _412
REMARK  170  A    between atoms: _412  and  _413
REMARK  171  A    between atoms: _413  and  _414
REMARK  172  A    between atoms: _418  and  _420
REMARK  173  A    between atoms: _420  and  _421
REMARK  174  A    between atoms: _420  and  _423
REMARK  175  A    between atoms: _426  and  _428
REMARK  176  A    between atoms: _428  and  _429
REMARK  177  A    between atoms: _432  and  _434
REMARK  178  A    between atoms: _434  and  _435
REMARK  179  A    between atoms: _434  and  _437
REMARK  180  A    between atoms: _437  and  _438
REMARK  181  A    between atoms: _441  and  _443
REMARK  182  A    between atoms: _443  and  _444
REMARK  183  A    between atoms: _443  and  _446
REMARK  184  A    between atoms: _446  and  _447
REMARK  185  A    between atoms: _453  and  _455
REMARK  186  A    between atoms: _455  and  _456
REMARK  187  A    between atoms: _455  and  _458
REMARK  188  A    between atoms: _458  and  _459
REMARK  189  A    between atoms: _462  and  _464
REMARK  190  A    between atoms: _464  and  _465
REMARK  191  A    between atoms: _468  and  _470
REMARK  192  A    between atoms: _470  and  _471
REMARK  193  A    between atoms: _470  and  _473
REMARK  194  A    between atoms: _473  and  _474
REMARK  195  A    between atoms: _474  and  _475
REMARK  196  A    between atoms: _475  and  _476
REMARK  197  A    between atoms: _485  and  _487
REMARK  198  A    between atoms: _487  and  _488
REMARK  199  A    between atoms: _487  and  _490
REMARK  200  A    between atoms: _490  and  _491
REMARK  201  A    between atoms: _494  and  _496
REMARK  202  A    between atoms: _496  and  _497
REMARK  203  A    between atoms: _496  and  _499
REMARK  204  A    between atoms: _499  and  _500
REMARK  205  A    between atoms: _500  and  _501
REMARK  206  A    between atoms: _503  and  _505
REMARK  207  A    between atoms: _505  and  _506
REMARK  208  A    between atoms: _505  and  _508
REMARK  209  A    between atoms: _508  and  _509
REMARK  210  A    between atoms: _514  and  _515
REMARK  211  A    between atoms: _517  and  _519
REMARK  212  A    between atoms: _519  and  _520
REMARK  213  A    between atoms: _519  and  _522
REMARK  214  A    between atoms: _522  and  _523
REMARK  215  A    between atoms: _526  and  _528
REMARK  216  A    between atoms: _528  and  _529
REMARK  217  A    between atoms: _528  and  _531
REMARK  218  A    between atoms: _531  and  _532
REMARK  219  A    between atoms: _537  and  _538
REMARK                            x       y       z     vdW  Elec       q    Type
REMARK                         _______ _______ _______ _____ _____    ______ ____
ROOT
ATOM      1  C   LEU A   1      22.102  83.370  15.919  0.00  0.00    +0.238 C 
ATOM      2  O   LEU A   1      21.066  83.425  16.580  0.00  0.00    -0.274 OA
ATOM      3  N   SER A   2      23.067  84.277  16.019  0.00  0.00    -0.296 N 
ATOM      4  H   SER A   2      23.918  84.187  15.428  0.00  0.00    +0.150 HD
ENDROOT
BRANCH   1   5
ATOM      5  CA  LEU A   1      22.324  82.239  14.920  0.00  0.00    +0.145 C 
BRANCH   5   6
ATOM      6  N   LEU A   1      22.011  80.956  15.548  0.00  0.00    -0.238 NA
ATOM      7  H   LEU A   1      21.251  80.364  15.156  0.00  0.00    +0.142 HD
ENDBRANCH   5   6
BRANCH   5   8
ATOM      8  CB  LEU A   1      21.433  82.477  13.700  0.00  0.00    +0.026 C 
BRANCH   8   9
ATOM      9  CG  LEU A   1      21.767  83.740  12.895  0.00  0.00    +0.002 C 
ATOM     10  CD2 LEU A   1      22.991  83.473  12.034  0.00  0.00    +0.000 C 
ATOM     11  CD1 LEU A   1      20.581  84.137  12.020  0.00  0.00    +0.000 C 
ENDBRANCH   8   9
ENDBRANCH   5   8
ENDBRANCH   1   5
BRANCH   3  12
ATOM     12  CA  SER A   2      22.952  85.399  16.946  0.00  0.00    +0.166 C 
BRANCH  12  13
ATOM     13  CB  SER A   2      22.412  86.649  16.257  0.00  0.00    +0.229 C 
ATOM     14  OG  SER A   2      22.308  86.705  15.032  0.00  0.00    -0.286 OA
ENDBRANCH  12  13
BRANCH  12  15
ATOM     15  C   SER A   2      24.315  85.704  17.578  0.00  0.00    +0.165 C 
BRANCH  15  16
ATOM     16  O   SER A   2      25.260  86.071  16.589  0.00  0.00    -0.380 OA
ATOM     17  H   SER A   2      26.130  86.263  17.021  0.00  0.00    +0.211 HD
ENDBRANCH  15  16
ENDBRANCH  12  15
ENDBRANCH   3  12
TORSDOF 8
REMARK  Name = ../refined-set-2016/4aoi/4aoi_pocket.pdb
REMARK  219 active torsions:
REMARK  status: ('A' for Active; 'I' for Inactive)
REMARK    1  A    between atoms: _1  and  _3
REMARK    2  A    between atoms: _3  and  _4
REMARK    3  A    between atoms: _3  and  _6
REMARK    4  A    between atoms: _9  and  _11
REMARK    5  A    between atoms: _11  and  _12
REMARK    6  A    between atoms: _11  and  _14
REMARK    7  A    between atoms: _14  and  _15
REMARK    8  A    between atoms: _18  and  _20
REMARK    9  A    between atoms: _20  and  _21
REMARK   10  A    between atoms: _23  and  _25
REMARK   11  A    between atoms: _25  and  _26
REMARK   12  A    between atoms: _25  and  _28
REMARK   13  A    between atoms: _28  and  _29
REMARK   14  A    between atoms: _29  and  _30
REMARK   15  A    between atoms: _30  and  _31
REMARK   16  A    between atoms: _40  and  _42
REMARK   17  A    between atoms: _42  and  _43
REMARK   18  A    between atoms: _45  and  _47
REMARK   19  A    between atoms: _47  and  _48
REMARK   20  A    between atoms: _47  and  _50
REMARK   21  A    between atoms: _52  and  _54
REMARK   22  A    between atoms: _54  and  _55
REMARK   23  A    between atoms: _54  and  _57
REMARK   24  A    between atoms: _60  and  _62
REMARK   25  A    between atoms: _62  and  _63
REMARK   26  A    between atoms: _62  and  _65
REMARK   27  A    between atoms: _65  and  _66
REMARK   28  A    between atoms: _71  and  _72
REMARK   29  A    between atoms: _74  and  _76
REMARK   30  A    between atoms: _76  and  _77
REMARK   31  A    between atoms: _76  and  _79
REMARK   32  A    between atoms: _79  and  _80
REMARK   33  A    between atoms: _85  and  _87
REMARK   34  A    between atoms: _87  and  _88
REMARK   35  A    between atoms: _90  and  _92
REMARK   36  A    between atoms: _92  and  _93
REMARK   37  A    between atoms: _92  and  _95
REMARK   38  A    between atoms: _95  and  _96
REMARK   39  A    between atoms: _101  and  _103
REMARK   40  A    between atoms: _103  and  _104
REMARK   41  A    between atoms: _103  and  _106
REMARK   42  A    between atoms: _108  and  _110
REMARK   43  A    between atoms: _110  and  _111
REMARK   44  A    between atoms: _114  and  _116
REMARK   45  A    between atoms: _116  and  _117
REMARK   46  A    between atoms: _116  and  _119
REMARK   47  A    between atoms: _122  and  _124
REMARK   48  A    between atoms: _124  and  _125
REMARK   49  A    between atoms: _124  and  _127
REMARK   50  A    between atoms: _127  and  _128
REMARK   51  A    between atoms: _128  and  _129
REMARK   52  A    between atoms: _129  and  _130
REMARK   53  A    between atoms: _130  and  _131
REMARK   54  A    between atoms: _135  and  _137
REMARK   55  A    between atoms: _137  and  _138
REMARK   56  A    between atoms: _137  and  _140
REMARK   57  A    between atoms: _140  and  _141
REMARK   58  A    between atoms: _143  and  _145
REMARK   59  A    between atoms: _145  and  _146
REMARK   60  A    between atoms: _145  and  _148
REMARK   61  A    between atoms: _148  and  _149
REMARK   62  A    between atoms: _149  and  _150
REMARK   63  A    between atoms: _152  and  _154
REMARK   64  A    between atoms: _154  and  _155
REMARK   65  A    between atoms: _154  and  _157
REMARK   66  A    between atoms: _157  and  _158
REMARK   67  A    between atoms: _161  and  _163
REMARK   68  A    between atoms: _163  and  _164
REMARK   69  A    between atoms: _163  and  _166
REMARK   70  A    between atoms: _166  and  _167
REMARK   71  A    between atoms: _169  and  _171
REMARK   72  A    between atoms: _171  and  _172
REMARK   73  A    between atoms: _171  and  _174
REMARK   74  A    between atoms: _177  and  _179
REMARK   75  A    between atoms: _179  and  _180
REMARK   76  A    between atoms: _179  and  _182
REMARK   77  A    between atoms: _185  and  _187
REMARK   78  A    between atoms: _187  and  _188
REMARK   79  A    between atoms: _187  and  _190
REMARK   80  A    between atoms: _190  and  _191
REMARK   81  A    between atoms: _195  and  _196
REMARK   82  A    between atoms: _201  and  _203
REMARK   83  A    between atoms: _203  and  _204
REMARK   84  A    between atoms: _203  and  _206
REMARK   85  A    between atoms: _206  and  _207
REMARK   86  A    between atoms: _212  and  _213
REMARK   87  A    between atoms: _215  and  _217
REMARK   88  A    between atoms: _217  and  _218
REMARK   89  A    between atoms: _217  and  _220
REMARK   90  A    between atoms: _220  and  _221
REMARK   91  A    between atoms: _221  and  _222
REMARK   92  A    between atoms: _224  and  _226
REMARK   93  A    between atoms: _226  and  _227
REMARK   94  A    between atoms: _226  and  _229
REMARK   95  A    between atoms: _229  and  _230
REMARK   96  A    between atoms: _230  and  _231
REMARK   97  A    between atoms: _231  and  _232
REMARK   98  A    between atoms: _232  and  _233
REMARK   99  A    between atoms: _237  and  _239
REMARK  100  A    between atoms: _239  and  _240
REMARK  101  A    between atoms: _239  and  _242
REMARK  102  A    between atoms: _242  and  _243
REMARK  103  A    between atoms: _248  and  _250
REMARK  104  A    between atoms: _250  and  _251
REMARK  105  A    between atoms: _253  and  _255
REMARK  106  A    between atoms: _255  and  _256
REMARK  107  A    between atoms: _255  and  _258
REMARK  108  A    between atoms: _258  and  _259
REMARK  109  A    between atoms: _262  and  _264
REMARK  110  A    between atoms: _264  and  _265
REMARK  111  A    between atoms: _264  and  _267
REMARK  112  A    between atoms: _267  and  _268
REMARK  113  A    between atoms: _271  and  _273
REMARK  114  A    between atoms: _273  and  _274
REMARK  115  A    between atoms: _273  and  _276
REMARK  116  A    between atoms: _276  and  _277
REMARK  117  A    between atoms: _277  and  _278
REMARK  118  A    between atoms: _278  and  _279
REMARK  119  A    between atoms: _288  and  _290
REMARK  120  A    between atoms: _290  and  _291
REMARK  121  A    between atoms: _290  and  _293
REMARK  122  A    between atoms: _293  and  _294
REMARK  123  A    between atoms: _299  and  _301
REMARK  124  A    between atoms: _301  and  _302
REMARK  125  A    between atoms: _301  and  _304
REMARK  126  A    between atoms: _304  and  _305
REMARK  127  A    between atoms: _311  and  _313
REMARK  128  A    between atoms: _313  and  _314
REMARK  129  A    between atoms: _313  and  _316
REMARK  130  A    between atoms: _316  and  _317
REMARK  131  A    between atoms: _322  and  _324
REMARK  132  A    between atoms: _324  and  _325
REMARK  133  A    between atoms: _324  and  _327
REMARK  134  A    between atoms: _327  and  _328
REMARK  135  A    between atoms: _331  and  _333
REMARK  136  A    between atoms: _333  and  _334
REMARK  137  A    between atoms: _337  and  _339
REMARK  138  A    between atoms: _339  and  _340
REMARK  139  A    between atoms: _343  and  _345
REMARK  140  A    between atoms: _345  and  _346
REMARK  141  A    between atoms: _345  and  _348
REMARK  142  A    between atoms: _348  and  _349
REMARK  143  A    between atoms: _349  and  _350
REMARK  144  A    between atoms: _350  and  _351
REMARK  145  A    between atoms: _360  and  _362
REMARK  146  A    between atoms: _362  and  _363
REMARK  147  A    between atoms: _362  and  _365
REMARK  148  A    between atoms: _365  and  _366
REMARK  149  A    between atoms: _371  and  _373
REMARK  150  A    between atoms: _373  and  _374
REMARK  151  A    between atoms: _373  and  _376
REMARK  152  A    between atoms: _378  and  _380
REMARK  153  A    between atoms: _380  and  _381
REMARK  154  A    between atoms: _380  and  _383
REMARK  155  A    between atoms: _383  and  _384
REMARK  156  A    between atoms: _384  and  _385
REMARK  157  A    between atoms: _387  and  _389
REMARK  158  A    between atoms: _389  and  _390
REMARK  159  A    between atoms: _389  and  _392
REMARK  160  A    between atoms: _392  and  _393
REMARK  161  A    between atoms: _396  and  _398
REMARK  162  A    between atoms: _398  and  _399
REMARK  163  A    between atoms: _398  and  _401
REMARK  164  A    between atoms: _401  and  _402
REMARK  165  A    between atoms: _405  and  _407
REMARK  166  A    between atoms: _407  and  _408
REMARK  167  A    between atoms: _407  and  _410
REMARK  168  A    between atoms: _410  and  _411
REMARK  169  A    between atoms: _411  and  _412
REMARK  170  A    between atoms: _412  and  _413
REMARK  171  A    between atoms: _413  and  _414
REMARK  172  A    between atoms: _418  and  _420
REMARK  173  A    between atoms: _420  and  _421
REMARK  174  A    between atoms: _420  and  _423
REMARK  175  A    between atoms: _426  and  _428
REMARK  176  A    between atoms: _428  and  _429
REMARK  177  A    between atoms: _432  and  _434
REMARK  178  A    between atoms: _434  and  _435
REMARK  179  A    between atoms: _434  and  _437
REMARK  180  A    between atoms: _437  and  _438
REMARK  181  A    between atoms: _441  and  _443
REMARK  182  A    between atoms: _443  and  _444
REMARK  183  A    between atoms: _443  and  _446
REMARK  184  A    between atoms: _446  and  _447
REMARK  185  A    between atoms: _453  and  _455
REMARK  186  A    between atoms: _455  and  _456
REMARK  187  A    between atoms: _455  and  _458
REMARK  188  A    between atoms: _458  and  _459
REMARK  189  A    between atoms: _462  and  _464
REMARK  190  A    between atoms: _464  and  _465
REMARK  191  A    between atoms: _468  and  _470
REMARK  192  A    between atoms: _470  and  _471
REMARK  193  A    between atoms: _470  and  _473
REMARK  194  A    between atoms: _473  and  _474
REMARK  195  A    between atoms: _474  and  _475
REMARK  196  A    between atoms: _475  and  _476
REMARK  197  A    between atoms: _485  and  _487
REMARK  198  A    between atoms: _487  and  _488
REMARK  199  A    between atoms: _487  and  _490
REMARK  200  A    between atoms: _490  and  _491
REMARK  201  A    between atoms: _494  and  _496
REMARK  202  A    between atoms: _496  and  _497
REMARK  203  A    between atoms: _496  and  _499
REMARK  204  A    between atoms: _499  and  _500
REMARK  205  A    between atoms: _500  and  _501
REMARK  206  A    between atoms: _503  and  _505
REMARK  207  A    between atoms: _505  and  _506
REMARK  208  A    between atoms: _505  and  _508
REMARK  209  A    between atoms: _508  and  _509
REMARK  210  A    between atoms: _514  and  _515
REMARK  211  A    between atoms: _517  and  _519
REMARK  212  A    between atoms: _519  and  _520
REMARK  213  A    between atoms: _519  and  _522
REMARK  214  A    between atoms: _522  and  _523
REMARK  215  A    between atoms: _526  and  _528
REMARK  216  A    between atoms: _528  and  _529
REMARK  217  A    between atoms: _528  and  _531
REMARK  218  A    between atoms: _531  and  _532
REMARK  219  A    between atoms: _537  and  _538
REMARK                            x       y       z     vdW  Elec       q    Type
REMARK                         _______ _______ _______ _____ _____    ______ ____
ROOT
ATOM      1  CA  HIS A   8      28.912  79.316   3.260  0.00  0.00    +0.155 C 
ENDROOT
BRANCH   1   3
ATOM      2  C   LYS A   7      29.740  81.572   3.491  0.00  0.00    +0.241 C 
ATOM      3  N   HIS A   8      29.252  80.480   4.067  0.00  0.00    -0.297 N 
ATOM      4  H   HIS A   8      29.112  80.456   5.097  0.00  0.00    +0.150 HD
ATOM      5  O   LYS A   7      29.906  81.656   2.277  0.00  0.00    -0.273 OA
BRANCH   2   6
ATOM      6  CA  LYS A   7      30.089  82.744   4.403  0.00  0.00    +0.149 C 
BRANCH   6   8
ATOM      7  C   MET A   6      27.988  82.893   5.644  0.00  0.00    +0.241 C 
ATOM      8  N   LYS A   7      29.311  82.766   5.636  0.00  0.00    -0.297 N 
ATOM      9  H   LYS A   7      29.810  82.679   6.544  0.00  0.00    +0.150 HD
ATOM     10  O   MET A   6      27.288  82.765   4.641  0.00  0.00    -0.273 OA
BRANCH   7  11
ATOM     11  CA  MET A   6      27.367  83.207   6.998  0.00  0.00    +0.149 C 
BRANCH  11  14
ATOM     12  C   TYR A   5      27.771  85.431   7.892  0.00  0.00    +0.241 C 
ATOM     13  O   TYR A   5      28.676  85.024   8.621  0.00  0.00    -0.273 OA
ATOM     14  N   MET A   6      27.083  84.634   7.084  0.00  0.00    -0.297 N 
ATOM     15  H   MET A   6      26.324  85.037   6.499  0.00  0.00    +0.150 HD
BRANCH  12  16
ATOM     16  CA  TYR A   5      27.377  86.904   7.881  0.00  0.00    +0.153 C 
BRANCH  16  19
ATOM     17  C   PRO A   4      26.240  87.100  10.021  0.00  0.00    +0.241 C 
ATOM     18  O   PRO A   4      25.296  86.407   9.637  0.00  0.00    -0.273 OA
ATOM     19  N   TYR A   5      27.275  87.403   9.246  0.00  0.00    -0.297 N 
ATOM     20  H   TYR A   5      28.030  88.011   9.622  0.00  0.00    +0.150 HD
BRANCH  17  26
ATOM     21  C   LEU A   3      24.320  89.091  11.139  0.00  0.00    +0.244 C 
ATOM     22  N   PRO A   4      24.925  88.122  11.841  0.00  0.00    -0.272 N 
ATOM     23  CD  PRO A   4      24.402  87.350  12.981  0.00  0.00    +0.094 C 
ATOM     24  CG  PRO A   4      25.350  86.183  13.068  0.00  0.00    +0.024 C 
ATOM     25  CB  PRO A   4      26.643  86.645  12.493  0.00  0.00    +0.031 C 
ATOM     26  CA  PRO A   4      26.261  87.681  11.433  0.00  0.00    +0.152 C 
ATOM     27  O   LEU A   3      24.891  89.685  10.227  0.00  0.00    -0.273 OA
BRANCH  21  28
ATOM     28  CA  LEU A   3      22.886  89.439  11.517  0.00  0.00    +0.149 C 
BRANCH  28  31
ATOM     29  C   VAL A   2      22.084  91.699  11.978  0.00  0.00    +0.241 C 
ATOM     30  O   VAL A   2      22.021  91.500  13.189  0.00  0.00    -0.273 OA
ATOM     31  N   LEU A   3      22.583  90.811  11.124  0.00  0.00    -0.297 N 
ATOM     32  H   LEU A   3      22.764  91.104  10.143  0.00  0.00    +0.150 HD
BRANCH  29  33
ATOM     33  CA  VAL A   2      21.582  93.006  11.367  0.00  0.00    +0.148 C 
BRANCH  33  35
ATOM     34  C   VAL A   1      19.202  92.992  10.866  0.00  0.00    +0.238 C 
ATOM     35  N   VAL A   2      20.186  93.248  11.724  0.00  0.00    -0.297 N 
ATOM     36  H   VAL A   2      19.958  93.627  12.665  0.00  0.00    +0.150 HD
ATOM     37  O   VAL A   1      19.393  92.464   9.769  0.00  0.00    -0.274 OA
BRANCH  34  38
ATOM     38  CA  VAL A   1      17.796  93.395  11.297  0.00  0.00    +0.145 C 
BRANCH  38  39
ATOM     39  CB  VAL A   1      16.889  92.143  11.292  0.00  0.00    +0.025 C 
ATOM     40  CG2 VAL A   1      17.452  91.083  12.225  0.00  0.00    +0.002 C 
ATOM     41  CG1 VAL A   1      15.480  92.523  11.709  0.00  0.00    +0.002 C 
ENDBRANCH  38  39
BRANCH  38  42
ATOM     42  N   VAL A   1      17.286  94.407  10.379  0.00  0.00    -0.238 NA
ATOM     43  H   VAL A   1      16.862  94.101   9.480  0.00  0.00    +0.142 HD
ENDBRANCH  38  42
ENDBRANCH  34  38
ENDBRANCH  33  35
BRANCH  33  44
ATOM     44  CB  VAL A   2      22.487  94.167  11.833  0.00  0.00    +0.027 C 
ATOM     45  CG2 VAL A   2      21.923  95.496  11.345  0.00  0.00    +0.002 C 
ATOM     46  CG1 VAL A   2      23.899  93.968  11.306  0.00  0.00    +0.002 C 
ENDBRANCH  33  44
ENDBRANCH  29  33
ENDBRANCH  28  31
BRANCH  28  47
ATOM     47  CB  LEU A   3      21.915  88.476  10.821  0.00  0.00    +0.029 C 
BRANCH  47  48
ATOM     48  CG  LEU A   3      20.426  88.715  11.106  0.00  0.00    +0.002 C 
ATOM     49  CD2 LEU A   3      20.076  88.158  12.481  0.00  0.00    +0.000 C 
ATOM     50  CD1 LEU A   3      19.571  88.062  10.030  0.00  0.00    +0.000 C 
ENDBRANCH  47  48
ENDBRANCH  28  47
ENDBRANCH  21  28
ENDBRANCH  17  26
ENDBRANCH  16  19
BRANCH  16  51
ATOM     51  CB  TYR A   5      28.416  87.719   7.100  0.00  0.00    +0.055 C 
BRANCH  51  52
ATOM     52  CG  TYR A   5      28.690  87.215   5.699  0.00  0.00    -0.020 A 
ATOM     53  CD2 TYR A   5      29.947  86.739   5.344  0.00  0.00    -0.001 A 
ATOM     54  CE2 TYR A   5      30.207  86.291   4.061  0.00  0.00    +0.036 A 
ATOM     55  CZ  TYR A   5      29.205  86.315   3.116  0.00  0.00    +0.134 A 
ATOM     56  CE1 TYR A   5      27.947  86.784   3.443  0.00  0.00    +0.036 A 
ATOM     57  CD1 TYR A   5      27.697  87.229   4.727  0.00  0.00    -0.001 A 
BRANCH  55  58
ATOM     58  OH  TYR A   5      29.456  85.865   1.841  0.00  0.00    -0.506 OA
ATOM     59  HH  TYR A   5      28.635  85.951   1.294  0.00  0.00    +0.292 HD
ENDBRANCH  55  58
ENDBRANCH  51  52
ENDBRANCH  16  51
ENDBRANCH  12  16
ENDBRANCH  11  14
BRANCH  11  60
ATOM     60  CB  MET A   6      26.075  82.413   7.197  0.00  0.00    +0.041 C 
BRANCH  60  61
ATOM     61  CG  MET A   6      25.423  82.679   8.552  0.00  0.00    +0.060 C 
BRANCH  61  62
ATOM     62  SD  MET A   6      26.271  81.796   9.872  0.00  0.00    -0.139 S 
ATOM     63  CE  MET A   6      26.674  83.123  11.028  0.00  0.00    +0.069 C 
ENDBRANCH  61  62
ENDBRANCH  60  61
ENDBRANCH  11  60
ENDBRANCH   7  11
ENDBRANCH   6   8
BRANCH   6  64
ATOM     64  CB  LYS A   7      31.584  82.713   4.745  0.00  0.00    +0.029 C 
BRANCH  64  65
ATOM     65  CG  LYS A   7      32.511  82.625   3.545  0.00  0.00    +0.000 C 
BRANCH  65  66
ATOM     66  CD  LYS A   7      33.925  83.047   3.926  0.00  0.00    -0.024 C 
BRANCH  66  67
ATOM     67  CE  LYS A   7      34.945  82.560   2.911  0.00  0.00    -0.086 C 
BRANCH  67  68
ATOM     68  NZ  LYS A   7      35.057  81.074   2.916  0.00  0.00    +0.380 N 
ATOM     69  HZ1 LYS A   7      35.353  80.753   3.860  0.00  0.00    -0.089 HD
ATOM     70  HZ2 LYS A   7      34.134  80.657   2.681  0.00  0.00    -0.089 HD
ATOM     71  HZ3 LYS A   7      35.762  80.778   2.211  0.00  0.00    -0.089 HD
ENDBRANCH  67  68
ENDBRANCH  66  67
ENDBRANCH  65  66
ENDBRANCH  64  65
ENDBRANCH   6  64
ENDBRANCH   2   6
ENDBRANCH   1   3
BRANCH   1  72
ATOM     72  C   HIS A   8      27.411  79.167   3.010  0.00  0.00    +0.241 C 
ATOM     73  N   GLY A   9      26.641  80.202   3.342  0.00  0.00    -0.295 N 
ATOM     74  H   GLY A   9      27.054  81.013   3.846  0.00  0.00    +0.150 HD
ATOM     75  O   HIS A   8      26.959  78.136   2.516  0.00  0.00    -0.273 OA
BRANCH  73  76
ATOM     76  CA  GLY A   9      25.226  80.204   3.004  0.00  0.00    +0.176 C 
BRANCH  76  77
ATOM     77  C   GLY A   9      24.404  79.178   3.769  0.00  0.00    +0.243 C 
ATOM     78  O   GLY A   9      24.783  78.762   4.863  0.00  0.00    -0.273 OA
ATOM     79  N   ASP A  10      23.275  78.765   3.195  0.00  0.00    -0.296 N 
ATOM     80  H   ASP A  10      23.032  79.106   2.243  0.00  0.00    +0.150 HD
BRANCH  79  81
ATOM     81  CA  ASP A  10      22.373  77.843   3.877  0.00  0.00    +0.160 C 
BRANCH  81  82
ATOM     82  C   ASP A  10      22.812  76.396   3.680  0.00  0.00    +0.241 C 
ATOM     83  N   LEU A  11      22.489  75.563   4.661  0.00  0.00    -0.297 N 
ATOM     84  H   LEU A  11      21.878  75.905   5.430  0.00  0.00    +0.150 HD
ATOM     85  O   ASP A  10      23.428  76.046   2.666  0.00  0.00    -0.273 OA
BRANCH  83  86
ATOM     86  CA  LEU A  11      22.962  74.185   4.698  0.00  0.00    +0.149 C 
BRANCH  86  87
ATOM     87  C   LEU A  11      22.463  73.369   3.508  0.00  0.00    +0.241 C 
ATOM     88  N   ARG A  12      21.233  73.617   3.064  0.00  0.00    -0.297 N 
ATOM     89  H   ARG A  12      20.666  74.380   3.485  0.00  0.00    +0.150 HD
ATOM     90  O   LEU A  11      23.188  72.519   2.990  0.00  0.00    -0.273 OA
BRANCH  88  91
ATOM     91  CA  ARG A  12      20.688  72.805   1.978  0.00  0.00    +0.149 C 
BRANCH  91  92
ATOM     92  C   ARG A  12      21.457  73.017   0.677  0.00  0.00    +0.241 C 
ATOM     93  N   ASN A  13      21.654  74.272   0.286  0.00  0.00    -0.297 N 
ATOM     94  H   ASN A  13      21.262  75.059   0.842  0.00  0.00    +0.150 HD
ATOM     95  O   ARG A  12      21.869  72.055   0.032  0.00  0.00    -0.273 OA
BRANCH  93  96
ATOM     96  CA  ASN A  13      22.421  74.544  -0.925  0.00  0.00    +0.158 C 
BRANCH  96  97
ATOM     97  C   ASN A  13      23.876  74.106  -0.767  0.00  0.00    +0.241 C 
ATOM     98  N   PHE A  14      24.415  74.197   0.446  0.00  0.00    -0.298 N 
ATOM     99  H   PHE A  14      23.861  74.585   1.236  0.00  0.00    +0.150 HD
ATOM    100  O   ASN A  13      24.503  73.676  -1.733  0.00  0.00    -0.273 OA
BRANCH  98 101
ATOM    101  CA  PHE A  14      25.789  73.749   0.663  0.00  0.00    +0.141 C 
BRANCH 101 102
ATOM    102  C   PHE A  14      25.954  72.265   0.325  0.00  0.00    +0.227 C 
ATOM    103  O   PHE A  14      26.908  71.881  -0.349  0.00  0.00    -0.286 OA
ENDBRANCH 101 102
BRANCH 101 104
ATOM    104  CB  PHE A  14      26.226  73.995   2.110  0.00  0.00    +0.054 C 
BRANCH 104 105
ATOM    105  CG  PHE A  14      27.665  73.629   2.378  0.00  0.00    -0.020 A 
ATOM    106  CD2 PHE A  14      28.000  72.365   2.838  0.00  0.00    -0.004 A 
ATOM    107  CE2 PHE A  14      29.325  72.020   3.069  0.00  0.00    -0.000 A 
ATOM    108  CZ  PHE A  14      30.327  72.941   2.840  0.00  0.00    -0.000 A 
ATOM    109  CE1 PHE A  14      30.005  74.210   2.382  0.00  0.00    -0.000 A 
ATOM    110  CD1 PHE A  14      28.681  74.547   2.154  0.00  0.00    -0.004 A 
ENDBRANCH 104 105
ENDBRANCH 101 104
ENDBRANCH  98 101
ENDBRANCH  96  97
BRANCH  96 111
ATOM    111  CB  ASN A  13      22.354  76.031  -1.291  0.00  0.00    +0.114 C 
BRANCH 111 112
ATOM    112  CG  ASN A  13      21.068  76.398  -2.020  0.00  0.00    +0.222 C 
ATOM    113  ND2 ASN A  13      20.399  77.447  -1.553  0.00  0.00    -0.329 N 
ATOM    114 HD21 ASN A  13      20.761  77.971  -0.731  0.00  0.00    +0.145 HD
ATOM    115 HD22 ASN A  13      19.513  77.744  -2.010  0.00  0.00    +0.145 HD
ATOM    116  OD1 ASN A  13      20.681  75.742  -2.993  0.00  0.00    -0.275 OA
ENDBRANCH 111 112
ENDBRANCH  96 111
ENDBRANCH  93  96
ENDBRANCH  91  92
BRANCH  91 117
ATOM    117  CB  ARG A  12      19.205  73.105   1.734  0.00  0.00    +0.033 C 
BRANCH 117 118
ATOM    118  CG  ARG A  12      18.580  72.086   0.773  0.00  0.00    +0.045 C 
BRANCH 118 119
ATOM    119  CD  ARG A  12      17.231  72.509   0.197  0.00  0.00    +0.174 C 
BRANCH 119 120
ATOM    120  NE  ARG A  12      16.713  71.458  -0.680  0.00  0.00    -0.265 N 
ATOM    121  HE  ARG A  12      16.875  70.471  -0.396  0.00  0.00    +0.259 HD
ATOM    122  CZ  ARG A  12      16.051  71.671  -1.813  0.00  0.00    +0.342 C 
ATOM    123  NH2 ARG A  12      15.809  72.909  -2.225  0.00  0.00    -0.292 N 
ATOM    124 HH21 ARG A  12      16.138  73.718  -1.661  0.00  0.00    +0.255 HD
ATOM    125 HH22 ARG A  12      15.291  73.070  -3.112  0.00  0.00    +0.255 HD
ATOM    126  NH1 ARG A  12      15.642  70.639  -2.543  0.00  0.00    -0.292 N 
ATOM    127 HH11 ARG A  12      15.840  69.668  -2.228  0.00  0.00    +0.255 HD
ATOM    128 HH12 ARG A  12      15.124  70.802  -3.430  0.00  0.00    +0.255 HD
ENDBRANCH 119 120
ENDBRANCH 118 119
ENDBRANCH 117 118
ENDBRANCH  91 117
ENDBRANCH  88  91
ENDBRANCH  86  87
BRANCH  86 129
ATOM    129  CB  LEU A  11      22.520  73.527   6.010  0.00  0.00    +0.029 C 
BRANCH 129 130
ATOM    130  CG  LEU A  11      22.953  72.087   6.277  0.00  0.00    +0.002 C 
ATOM    131  CD2 LEU A  11      22.402  71.639   7.628  0.00  0.00    +0.000 C 
ATOM    132  CD1 LEU A  11      24.471  71.986   6.245  0.00  0.00    +0.000 C 
ENDBRANCH 129 130
ENDBRANCH  86 129
ENDBRANCH  83  86
ENDBRANCH  81  82
BRANCH  81 133
ATOM    133  CB  ASP A  10      20.932  78.023   3.381  0.00  0.00    +0.143 C 
BRANCH 133 134
ATOM    134  CG  ASP A  10      20.736  77.543   1.952  0.00  0.00    +0.367 C 
ATOM    135  OD2 ASP A  10      20.178  76.440   1.765  0.00  0.00    -0.246 OA
ATOM    136  OD1 ASP A  10      21.136  78.267   1.017  0.00  0.00    -0.246 OA
ENDBRANCH 133 134
ENDBRANCH  81 133
ENDBRANCH  79  81
ENDBRANCH  76  77
ENDBRANCH  73  76
ENDBRANCH   1  72
BRANCH   1 137
ATOM    137  CB  HIS A   8      29.479  78.049   3.909  0.00  0.00    +0.076 C 
BRANCH 137 138
ATOM    138  CG  HIS A   8      30.976  78.022   3.957  0.00  0.00    +0.082 A 
ATOM    139  ND1 HIS A   8      31.689  78.274   5.108  0.00  0.00    -0.227 NA
ATOM    140  CE1 HIS A   8      32.982  78.220   4.845  0.00  0.00    +0.199 A 
ATOM    141  NE2 HIS A   8      33.135  77.940   3.563  0.00  0.00    -0.221 NA
ATOM    142  CD2 HIS A   8      31.895  77.810   2.985  0.00  0.00    +0.115 A 
ENDBRANCH 137 138
ENDBRANCH   1 137
TORSDOF 56
REMARK  Name = ../refined-set-2016/4aoi/4aoi_pocket.pdb
REMARK  219 active torsions:
REMARK  status: ('A' for Active; 'I' for Inactive)
REMARK    1  A    between atoms: _1  and  _3
REMARK    2  A    between atoms: _3  and  _4
REMARK    3  A    between atoms: _3  and  _6
REMARK    4  A    between atoms: _9  and  _11
REMARK    5  A    between atoms: _11  and  _12
REMARK    6  A    between atoms: _11  and  _14
REMARK    7  A    between atoms: _14  and  _15
REMARK    8  A    between atoms: _18  and  _20
REMARK    9  A    between atoms: _20  and  _21
REMARK   10  A    between atoms: _23  and  _25
REMARK   11  A    between atoms: _25  and  _26
REMARK   12  A    between atoms: _25  and  _28
REMARK   13  A    between atoms: _28  and  _29
REMARK   14  A    between atoms: _29  and  _30
REMARK   15  A    between atoms: _30  and  _31
REMARK   16  A    between atoms: _40  and  _42
REMARK   17  A    between atoms: _42  and  _43
REMARK   18  A    between atoms: _45  and  _47
REMARK   19  A    between atoms: _47  and  _48
REMARK   20  A    between atoms: _47  and  _50
REMARK   21  A    between atoms: _52  and  _54
REMARK   22  A    between atoms: _54  and  _55
REMARK   23  A    between atoms: _54  and  _57
REMARK   24  A    between atoms: _60  and  _62
REMARK   25  A    between atoms: _62  and  _63
REMARK   26  A    between atoms: _62  and  _65
REMARK   27  A    between atoms: _65  and  _66
REMARK   28  A    between atoms: _71  and  _72
REMARK   29  A    between atoms: _74  and  _76
REMARK   30  A    between atoms: _76  and  _77
REMARK   31  A    between atoms: _76  and  _79
REMARK   32  A    between atoms: _79  and  _80
REMARK   33  A    between atoms: _85  and  _87
REMARK   34  A    between atoms: _87  and  _88
REMARK   35  A    between atoms: _90  and  _92
REMARK   36  A    between atoms: _92  and  _93
REMARK   37  A    between atoms: _92  and  _95
REMARK   38  A    between atoms: _95  and  _96
REMARK   39  A    between atoms: _101  and  _103
REMARK   40  A    between atoms: _103  and  _104
REMARK   41  A    between atoms: _103  and  _106
REMARK   42  A    between atoms: _108  and  _110
REMARK   43  A    between atoms: _110  and  _111
REMARK   44  A    between atoms: _114  and  _116
REMARK   45  A    between atoms: _116  and  _117
REMARK   46  A    between atoms: _116  and  _119
REMARK   47  A    between atoms: _122  and  _124
REMARK   48  A    between atoms: _124  and  _125
REMARK   49  A    between atoms: _124  and  _127
REMARK   50  A    between atoms: _127  and  _128
REMARK   51  A    between atoms: _128  and  _129
REMARK   52  A    between atoms: _129  and  _130
REMARK   53  A    between atoms: _130  and  _131
REMARK   54  A    between atoms: _135  and  _137
REMARK   55  A    between atoms: _137  and  _138
REMARK   56  A    between atoms: _137  and  _140
REMARK   57  A    between atoms: _140  and  _141
REMARK   58  A    between atoms: _143  and  _145
REMARK   59  A    between atoms: _145  and  _146
REMARK   60  A    between atoms: _145  and  _148
REMARK   61  A    between atoms: _148  and  _149
REMARK   62  A    between atoms: _149  and  _150
REMARK   63  A    between atoms: _152  and  _154
REMARK   64  A    between atoms: _154  and  _155
REMARK   65  A    between atoms: _154  and  _157
REMARK   66  A    between atoms: _157  and  _158
REMARK   67  A    between atoms: _161  and  _163
REMARK   68  A    between atoms: _163  and  _164
REMARK   69  A    between atoms: _163  and  _166
REMARK   70  A    between atoms: _166  and  _167
REMARK   71  A    between atoms: _169  and  _171
REMARK   72  A    between atoms: _171  and  _172
REMARK   73  A    between atoms: _171  and  _174
REMARK   74  A    between atoms: _177  and  _179
REMARK   75  A    between atoms: _179  and  _180
REMARK   76  A    between atoms: _179  and  _182
REMARK   77  A    between atoms: _185  and  _187
REMARK   78  A    between atoms: _187  and  _188
REMARK   79  A    between atoms: _187  and  _190
REMARK   80  A    between atoms: _190  and  _191
REMARK   81  A    between atoms: _195  and  _196
REMARK   82  A    between atoms: _201  and  _203
REMARK   83  A    between atoms: _203  and  _204
REMARK   84  A    between atoms: _203  and  _206
REMARK   85  A    between atoms: _206  and  _207
REMARK   86  A    between atoms: _212  and  _213
REMARK   87  A    between atoms: _215  and  _217
REMARK   88  A    between atoms: _217  and  _218
REMARK   89  A    between atoms: _217  and  _220
REMARK   90  A    between atoms: _220  and  _221
REMARK   91  A    between atoms: _221  and  _222
REMARK   92  A    between atoms: _224  and  _226
REMARK   93  A    between atoms: _226  and  _227
REMARK   94  A    between atoms: _226  and  _229
REMARK   95  A    between atoms: _229  and  _230
REMARK   96  A    between atoms: _230  and  _231
REMARK   97  A    between atoms: _231  and  _232
REMARK   98  A    between atoms: _232  and  _233
REMARK   99  A    between atoms: _237  and  _239
REMARK  100  A    between atoms: _239  and  _240
REMARK  101  A    between atoms: _239  and  _242
REMARK  102  A    between atoms: _242  and  _243
REMARK  103  A    between atoms: _248  and  _250
REMARK  104  A    between atoms: _250  and  _251
REMARK  105  A    between atoms: _253  and  _255
REMARK  106  A    between atoms: _255  and  _256
REMARK  107  A    between atoms: _255  and  _258
REMARK  108  A    between atoms: _258  and  _259
REMARK  109  A    between atoms: _262  and  _264
REMARK  110  A    between atoms: _264  and  _265
REMARK  111  A    between atoms: _264  and  _267
REMARK  112  A    between atoms: _267  and  _268
REMARK  113  A    between atoms: _271  and  _273
REMARK  114  A    between atoms: _273  and  _274
REMARK  115  A    between atoms: _273  and  _276
REMARK  116  A    between atoms: _276  and  _277
REMARK  117  A    between atoms: _277  and  _278
REMARK  118  A    between atoms: _278  and  _279
REMARK  119  A    between atoms: _288  and  _290
REMARK  120  A    between atoms: _290  and  _291
REMARK  121  A    between atoms: _290  and  _293
REMARK  122  A    between atoms: _293  and  _294
REMARK  123  A    between atoms: _299  and  _301
REMARK  124  A    between atoms: _301  and  _302
REMARK  125  A    between atoms: _301  and  _304
REMARK  126  A    between atoms: _304  and  _305
REMARK  127  A    between atoms: _311  and  _313
REMARK  128  A    between atoms: _313  and  _314
REMARK  129  A    between atoms: _313  and  _316
REMARK  130  A    between atoms: _316  and  _317
REMARK  131  A    between atoms: _322  and  _324
REMARK  132  A    between atoms: _324  and  _325
REMARK  133  A    between atoms: _324  and  _327
REMARK  134  A    between atoms: _327  and  _328
REMARK  135  A    between atoms: _331  and  _333
REMARK  136  A    between atoms: _333  and  _334
REMARK  137  A    between atoms: _337  and  _339
REMARK  138  A    between atoms: _339  and  _340
REMARK  139  A    between atoms: _343  and  _345
REMARK  140  A    between atoms: _345  and  _346
REMARK  141  A    between atoms: _345  and  _348
REMARK  142  A    between atoms: _348  and  _349
REMARK  143  A    between atoms: _349  and  _350
REMARK  144  A    between atoms: _350  and  _351
REMARK  145  A    between atoms: _360  and  _362
REMARK  146  A    between atoms: _362  and  _363
REMARK  147  A    between atoms: _362  and  _365
REMARK  148  A    between atoms: _365  and  _366
REMARK  149  A    between atoms: _371  and  _373
REMARK  150  A    between atoms: _373  and  _374
REMARK  151  A    between atoms: _373  and  _376
REMARK  152  A    between atoms: _378  and  _380
REMARK  153  A    between atoms: _380  and  _381
REMARK  154  A    between atoms: _380  and  _383
REMARK  155  A    between atoms: _383  and  _384
REMARK  156  A    between atoms: _384  and  _385
REMARK  157  A    between atoms: _387  and  _389
REMARK  158  A    between atoms: _389  and  _390
REMARK  159  A    between atoms: _389  and  _392
REMARK  160  A    between atoms: _392  and  _393
REMARK  161  A    between atoms: _396  and  _398
REMARK  162  A    between atoms: _398  and  _399
REMARK  163  A    between atoms: _398  and  _401
REMARK  164  A    between atoms: _401  and  _402
REMARK  165  A    between atoms: _405  and  _407
REMARK  166  A    between atoms: _407  and  _408
REMARK  167  A    between atoms: _407  and  _410
REMARK  168  A    between atoms: _410  and  _411
REMARK  169  A    between atoms: _411  and  _412
REMARK  170  A    between atoms: _412  and  _413
REMARK  171  A    between atoms: _413  and  _414
REMARK  172  A    between atoms: _418  and  _420
REMARK  173  A    between atoms: _420  and  _421
REMARK  174  A    between atoms: _420  and  _423
REMARK  175  A    between atoms: _426  and  _428
REMARK  176  A    between atoms: _428  and  _429
REMARK  177  A    between atoms: _432  and  _434
REMARK  178  A    between atoms: _434  and  _435
REMARK  179  A    between atoms: _434  and  _437
REMARK  180  A    between atoms: _437  and  _438
REMARK  181  A    between atoms: _441  and  _443
REMARK  182  A    between atoms: _443  and  _444
REMARK  183  A    between atoms: _443  and  _446
REMARK  184  A    between atoms: _446  and  _447
REMARK  185  A    between atoms: _453  and  _455
REMARK  186  A    between atoms: _455  and  _456
REMARK  187  A    between atoms: _455  and  _458
REMARK  188  A    between atoms: _458  and  _459
REMARK  189  A    between atoms: _462  and  _464
REMARK  190  A    between atoms: _464  and  _465
REMARK  191  A    between atoms: _468  and  _470
REMARK  192  A    between atoms: _470  and  _471
REMARK  193  A    between atoms: _470  and  _473
REMARK  194  A    between atoms: _473  and  _474
REMARK  195  A    between atoms: _474  and  _475
REMARK  196  A    between atoms: _475  and  _476
REMARK  197  A    between atoms: _485  and  _487
REMARK  198  A    between atoms: _487  and  _488
REMARK  199  A    between atoms: _487  and  _490
REMARK  200  A    between atoms: _490  and  _491
REMARK  201  A    between atoms: _494  and  _496
REMARK  202  A    between atoms: _496  and  _497
REMARK  203  A    between atoms: _496  and  _499
REMARK  204  A    between atoms: _499  and  _500
REMARK  205  A    between atoms: _500  and  _501
REMARK  206  A    between atoms: _503  and  _505
REMARK  207  A    between atoms: _505  and  _506
REMARK  208  A    between atoms: _505  and  _508
REMARK  209  A    between atoms: _508  and  _509
REMARK  210  A    between atoms: _514  and  _515
REMARK  211  A    between atoms: _517  and  _519
REMARK  212  A    between atoms: _519  and  _520
REMARK  213  A    between atoms: _519  and  _522
REMARK  214  A    between atoms: _522  and  _523
REMARK  215  A    between atoms: _526  and  _528
REMARK  216  A    between atoms: _528  and  _529
REMARK  217  A    between atoms: _528  and  _531
REMARK  218  A    between atoms: _531  and  _532
REMARK  219  A    between atoms: _537  and  _538
REMARK                            x       y       z     vdW  Elec       q    Type
REMARK                         _______ _______ _______ _____ _____    ______ ____
ROOT
ATOM      1  CB  HIS A   1      12.447  76.237  15.801  0.00  0.00    +0.072 C 
ENDROOT
BRANCH   1   2
ATOM      2  CG  HIS A   1      13.111  76.848  14.605  0.00  0.00    +0.082 A 
ATOM      3  ND1 HIS A   1      14.394  77.350  14.640  0.00  0.00    -0.227 NA
ATOM      4  CE1 HIS A   1      14.702  77.846  13.455  0.00  0.00    +0.199 A 
ATOM      5  NE2 HIS A   1      13.666  77.683  12.653  0.00  0.00    -0.221 NA
ATOM      6  CD2 HIS A   1      12.659  77.059  13.347  0.00  0.00    +0.115 A 
ENDBRANCH   1   2
BRANCH   1   7
ATOM      7  CA  HIS A   1      11.286  77.075  16.355  0.00  0.00    +0.139 C 
BRANCH   7   8
ATOM      8  N   HIS A   1      10.798  76.488  17.597  0.00  0.00    -0.239 NA
ATOM      9  H   HIS A   1      11.047  75.505  17.828  0.00  0.00    +0.142 HD
ENDBRANCH   7   8
BRANCH   7  10
ATOM     10  C   HIS A   1      10.184  77.194  15.305  0.00  0.00    +0.224 C 
ATOM     11  O   HIS A   1       9.959  78.274  14.758  0.00  0.00    -0.287 OA
ENDBRANCH   7  10
ENDBRANCH   1   7
TORSDOF 4
REMARK  Name = ../refined-set-2016/4aoi/4aoi_pocket.pdb
REMARK  219 active torsions:
REMARK  status: ('A' for Active; 'I' for Inactive)
REMARK    1  A    between atoms: _1  and  _3
REMARK    2  A    between atoms: _3  and  _4
REMARK    3  A    between atoms: _3  and  _6
REMARK    4  A    between atoms: _9  and  _11
REMARK    5  A    between atoms: _11  and  _12
REMARK    6  A    between atoms: _11  and  _14
REMARK    7  A    between atoms: _14  and  _15
REMARK    8  A    between atoms: _18  and  _20
REMARK    9  A    between atoms: _20  and  _21
REMARK   10  A    between atoms: _23  and  _25
REMARK   11  A    between atoms: _25  and  _26
REMARK   12  A    between atoms: _25  and  _28
REMARK   13  A    between atoms: _28  and  _29
REMARK   14  A    between atoms: _29  and  _30
REMARK   15  A    between atoms: _30  and  _31
REMARK   16  A    between atoms: _40  and  _42
REMARK   17  A    between atoms: _42  and  _43
REMARK   18  A    between atoms: _45  and  _47
REMARK   19  A    between atoms: _47  and  _48
REMARK   20  A    between atoms: _47  and  _50
REMARK   21  A    between atoms: _52  and  _54
REMARK   22  A    between atoms: _54  and  _55
REMARK   23  A    between atoms: _54  and  _57
REMARK   24  A    between atoms: _60  and  _62
REMARK   25  A    between atoms: _62  and  _63
REMARK   26  A    between atoms: _62  and  _65
REMARK   27  A    between atoms: _65  and  _66
REMARK   28  A    between atoms: _71  and  _72
REMARK   29  A    between atoms: _74  and  _76
REMARK   30  A    between atoms: _76  and  _77
REMARK   31  A    between atoms: _76  and  _79
REMARK   32  A    between atoms: _79  and  _80
REMARK   33  A    between atoms: _85  and  _87
REMARK   34  A    between atoms: _87  and  _88
REMARK   35  A    between atoms: _90  and  _92
REMARK   36  A    between atoms: _92  and  _93
REMARK   37  A    between atoms: _92  and  _95
REMARK   38  A    between atoms: _95  and  _96
REMARK   39  A    between atoms: _101  and  _103
REMARK   40  A    between atoms: _103  and  _104
REMARK   41  A    between atoms: _103  and  _106
REMARK   42  A    between atoms: _108  and  _110
REMARK   43  A    between atoms: _110  and  _111
REMARK   44  A    between atoms: _114  and  _116
REMARK   45  A    between atoms: _116  and  _117
REMARK   46  A    between atoms: _116  and  _119
REMARK   47  A    between atoms: _122  and  _124
REMARK   48  A    between atoms: _124  and  _125
REMARK   49  A    between atoms: _124  and  _127
REMARK   50  A    between atoms: _127  and  _128
REMARK   51  A    between atoms: _128  and  _129
REMARK   52  A    between atoms: _129  and  _130
REMARK   53  A    between atoms: _130  and  _131
REMARK   54  A    between atoms: _135  and  _137
REMARK   55  A    between atoms: _137  and  _138
REMARK   56  A    between atoms: _137  and  _140
REMARK   57  A    between atoms: _140  and  _141
REMARK   58  A    between atoms: _143  and  _145
REMARK   59  A    between atoms: _145  and  _146
REMARK   60  A    between atoms: _145  and  _148
REMARK   61  A    between atoms: _148  and  _149
REMARK   62  A    between atoms: _149  and  _150
REMARK   63  A    between atoms: _152  and  _154
REMARK   64  A    between atoms: _154  and  _155
REMARK   65  A    between atoms: _154  and  _157
REMARK   66  A    between atoms: _157  and  _158
REMARK   67  A    between atoms: _161  and  _163
REMARK   68  A    between atoms: _163  and  _164
REMARK   69  A    between atoms: _163  and  _166
REMARK   70  A    between atoms: _166  and  _167
REMARK   71  A    between atoms: _169  and  _171
REMARK   72  A    between atoms: _171  and  _172
REMARK   73  A    between atoms: _171  and  _174
REMARK   74  A    between atoms: _177  and  _179
REMARK   75  A    between atoms: _179  and  _180
REMARK   76  A    between atoms: _179  and  _182
REMARK   77  A    between atoms: _185  and  _187
REMARK   78  A    between atoms: _187  and  _188
REMARK   79  A    between atoms: _187  and  _190
REMARK   80  A    between atoms: _190  and  _191
REMARK   81  A    between atoms: _195  and  _196
REMARK   82  A    between atoms: _201  and  _203
REMARK   83  A    between atoms: _203  and  _204
REMARK   84  A    between atoms: _203  and  _206
REMARK   85  A    between atoms: _206  and  _207
REMARK   86  A    between atoms: _212  and  _213
REMARK   87  A    between atoms: _215  and  _217
REMARK   88  A    between atoms: _217  and  _218
REMARK   89  A    between atoms: _217  and  _220
REMARK   90  A    between atoms: _220  and  _221
REMARK   91  A    between atoms: _221  and  _222
REMARK   92  A    between atoms: _224  and  _226
REMARK   93  A    between atoms: _226  and  _227
REMARK   94  A    between atoms: _226  and  _229
REMARK   95  A    between atoms: _229  and  _230
REMARK   96  A    between atoms: _230  and  _231
REMARK   97  A    between atoms: _231  and  _232
REMARK   98  A    between atoms: _232  and  _233
REMARK   99  A    between atoms: _237  and  _239
REMARK  100  A    between atoms: _239  and  _240
REMARK  101  A    between atoms: _239  and  _242
REMARK  102  A    between atoms: _242  and  _243
REMARK  103  A    between atoms: _248  and  _250
REMARK  104  A    between atoms: _250  and  _251
REMARK  105  A    between atoms: _253  and  _255
REMARK  106  A    between atoms: _255  and  _256
REMARK  107  A    between atoms: _255  and  _258
REMARK  108  A    between atoms: _258  and  _259
REMARK  109  A    between atoms: _262  and  _264
REMARK  110  A    between atoms: _264  and  _265
REMARK  111  A    between atoms: _264  and  _267
REMARK  112  A    between atoms: _267  and  _268
REMARK  113  A    between atoms: _271  and  _273
REMARK  114  A    between atoms: _273  and  _274
REMARK  115  A    between atoms: _273  and  _276
REMARK  116  A    between atoms: _276  and  _277
REMARK  117  A    between atoms: _277  and  _278
REMARK  118  A    between atoms: _278  and  _279
REMARK  119  A    between atoms: _288  and  _290
REMARK  120  A    between atoms: _290  and  _291
REMARK  121  A    between atoms: _290  and  _293
REMARK  122  A    between atoms: _293  and  _294
REMARK  123  A    between atoms: _299  and  _301
REMARK  124  A    between atoms: _301  and  _302
REMARK  125  A    between atoms: _301  and  _304
REMARK  126  A    between atoms: _304  and  _305
REMARK  127  A    between atoms: _311  and  _313
REMARK  128  A    between atoms: _313  and  _314
REMARK  129  A    between atoms: _313  and  _316
REMARK  130  A    between atoms: _316  and  _317
REMARK  131  A    between atoms: _322  and  _324
REMARK  132  A    between atoms: _324  and  _325
REMARK  133  A    between atoms: _324  and  _327
REMARK  134  A    between atoms: _327  and  _328
REMARK  135  A    between atoms: _331  and  _333
REMARK  136  A    between atoms: _333  and  _334
REMARK  137  A    between atoms: _337  and  _339
REMARK  138  A    between atoms: _339  and  _340
REMARK  139  A    between atoms: _343  and  _345
REMARK  140  A    between atoms: _345  and  _346
REMARK  141  A    between atoms: _345  and  _348
REMARK  142  A    between atoms: _348  and  _349
REMARK  143  A    between atoms: _349  and  _350
REMARK  144  A    between atoms: _350  and  _351
REMARK  145  A    between atoms: _360  and  _362
REMARK  146  A    between atoms: _362  and  _363
REMARK  147  A    between atoms: _362  and  _365
REMARK  148  A    between atoms: _365  and  _366
REMARK  149  A    between atoms: _371  and  _373
REMARK  150  A    between atoms: _373  and  _374
REMARK  151  A    between atoms: _373  and  _376
REMARK  152  A    between atoms: _378  and  _380
REMARK  153  A    between atoms: _380  and  _381
REMARK  154  A    between atoms: _380  and  _383
REMARK  155  A    between atoms: _383  and  _384
REMARK  156  A    between atoms: _384  and  _385
REMARK  157  A    between atoms: _387  and  _389
REMARK  158  A    between atoms: _389  and  _390
REMARK  159  A    between atoms: _389  and  _392
REMARK  160  A    between atoms: _392  and  _393
REMARK  161  A    between atoms: _396  and  _398
REMARK  162  A    between atoms: _398  and  _399
REMARK  163  A    between atoms: _398  and  _401
REMARK  164  A    between atoms: _401  and  _402
REMARK  165  A    between atoms: _405  and  _407
REMARK  166  A    between atoms: _407  and  _408
REMARK  167  A    between atoms: _407  and  _410
REMARK  168  A    between atoms: _410  and  _411
REMARK  169  A    between atoms: _411  and  _412
REMARK  170  A    between atoms: _412  and  _413
REMARK  171  A    between atoms: _413  and  _414
REMARK  172  A    between atoms: _418  and  _420
REMARK  173  A    between atoms: _420  and  _421
REMARK  174  A    between atoms: _420  and  _423
REMARK  175  A    between atoms: _426  and  _428
REMARK  176  A    between atoms: _428  and  _429
REMARK  177  A    between atoms: _432  and  _434
REMARK  178  A    between atoms: _434  and  _435
REMARK  179  A    between atoms: _434  and  _437
REMARK  180  A    between atoms: _437  and  _438
REMARK  181  A    between atoms: _441  and  _443
REMARK  182  A    between atoms: _443  and  _444
REMARK  183  A    between atoms: _443  and  _446
REMARK  184  A    between atoms: _446  and  _447
REMARK  185  A    between atoms: _453  and  _455
REMARK  186  A    between atoms: _455  and  _456
REMARK  187  A    between atoms: _455  and  _458
REMARK  188  A    between atoms: _458  and  _459
REMARK  189  A    between atoms: _462  and  _464
REMARK  190  A    between atoms: _464  and  _465
REMARK  191  A    between atoms: _468  and  _470
REMARK  192  A    between atoms: _470  and  _471
REMARK  193  A    between atoms: _470  and  _473
REMARK  194  A    between atoms: _473  and  _474
REMARK  195  A    between atoms: _474  and  _475
REMARK  196  A    between atoms: _475  and  _476
REMARK  197  A    between atoms: _485  and  _487
REMARK  198  A    between atoms: _487  and  _488
REMARK  199  A    between atoms: _487  and  _490
REMARK  200  A    between atoms: _490  and  _491
REMARK  201  A    between atoms: _494  and  _496
REMARK  202  A    between atoms: _496  and  _497
REMARK  203  A    between atoms: _496  and  _499
REMARK  204  A    between atoms: _499  and  _500
REMARK  205  A    between atoms: _500  and  _501
REMARK  206  A    between atoms: _503  and  _505
REMARK  207  A    between atoms: _505  and  _506
REMARK  208  A    between atoms: _505  and  _508
REMARK  209  A    between atoms: _508  and  _509
REMARK  210  A    between atoms: _514  and  _515
REMARK  211  A    between atoms: _517  and  _519
REMARK  212  A    between atoms: _519  and  _520
REMARK  213  A    between atoms: _519  and  _522
REMARK  214  A    between atoms: _522  and  _523
REMARK  215  A    between atoms: _526  and  _528
REMARK  216  A    between atoms: _528  and  _529
REMARK  217  A    between atoms: _528  and  _531
REMARK  218  A    between atoms: _531  and  _532
REMARK  219  A    between atoms: _537  and  _538
REMARK                            x       y       z     vdW  Elec       q    Type
REMARK                         _______ _______ _______ _____ _____    ______ ____
ROOT
ATOM      1  CA  ASP A   1      10.349  76.037  10.841  0.00  0.00    +0.144 C 
ENDROOT
BRANCH   1   2
ATOM      2  N   ASP A   1       9.970  76.171  12.250  0.00  0.00    -0.239 NA
ATOM      3  H   ASP A   1      10.678  76.455  12.957  0.00  0.00    +0.142 HD
ENDBRANCH   1   2
BRANCH   1   4
ATOM      4  C   ASP A   1      11.771  75.511  10.682  0.00  0.00    +0.225 C 
ATOM      5  O   ASP A   1      12.561  76.065   9.924  0.00  0.00    -0.287 OA
ENDBRANCH   1   4
BRANCH   1   6
ATOM      6  CB  ASP A   1      10.203  77.390  10.123  0.00  0.00    +0.139 C 
BRANCH   6   7
ATOM      7  CG  ASP A   1      10.239  77.266   8.599  0.00  0.00    +0.367 C 
ATOM      8  OD2 ASP A   1      10.196  76.132   8.069  0.00  0.00    -0.246 OA
ATOM      9  OD1 ASP A   1      10.307  78.315   7.927  0.00  0.00    -0.246 OA
ENDBRANCH   6   7
ENDBRANCH   1   6
TORSDOF 4
REMARK  Name = ../refined-set-2016/4aoi/4aoi_pocket.pdb
REMARK  219 active torsions:
REMARK  status: ('A' for Active; 'I' for Inactive)
REMARK    1  A    between atoms: _1  and  _3
REMARK    2  A    between atoms: _3  and  _4
REMARK    3  A    between atoms: _3  and  _6
REMARK    4  A    between atoms: _9  and  _11
REMARK    5  A    between atoms: _11  and  _12
REMARK    6  A    between atoms: _11  and  _14
REMARK    7  A    between atoms: _14  and  _15
REMARK    8  A    between atoms: _18  and  _20
REMARK    9  A    between atoms: _20  and  _21
REMARK   10  A    between atoms: _23  and  _25
REMARK   11  A    between atoms: _25  and  _26
REMARK   12  A    between atoms: _25  and  _28
REMARK   13  A    between atoms: _28  and  _29
REMARK   14  A    between atoms: _29  and  _30
REMARK   15  A    between atoms: _30  and  _31
REMARK   16  A    between atoms: _40  and  _42
REMARK   17  A    between atoms: _42  and  _43
REMARK   18  A    between atoms: _45  and  _47
REMARK   19  A    between atoms: _47  and  _48
REMARK   20  A    between atoms: _47  and  _50
REMARK   21  A    between atoms: _52  and  _54
REMARK   22  A    between atoms: _54  and  _55
REMARK   23  A    between atoms: _54  and  _57
REMARK   24  A    between atoms: _60  and  _62
REMARK   25  A    between atoms: _62  and  _63
REMARK   26  A    between atoms: _62  and  _65
REMARK   27  A    between atoms: _65  and  _66
REMARK   28  A    between atoms: _71  and  _72
REMARK   29  A    between atoms: _74  and  _76
REMARK   30  A    between atoms: _76  and  _77
REMARK   31  A    between atoms: _76  and  _79
REMARK   32  A    between atoms: _79  and  _80
REMARK   33  A    between atoms: _85  and  _87
REMARK   34  A    between atoms: _87  and  _88
REMARK   35  A    between atoms: _90  and  _92
REMARK   36  A    between atoms: _92  and  _93
REMARK   37  A    between atoms: _92  and  _95
REMARK   38  A    between atoms: _95  and  _96
REMARK   39  A    between atoms: _101  and  _103
REMARK   40  A    between atoms: _103  and  _104
REMARK   41  A    between atoms: _103  and  _106
REMARK   42  A    between atoms: _108  and  _110
REMARK   43  A    between atoms: _110  and  _111
REMARK   44  A    between atoms: _114  and  _116
REMARK   45  A    between atoms: _116  and  _117
REMARK   46  A    between atoms: _116  and  _119
REMARK   47  A    between atoms: _122  and  _124
REMARK   48  A    between atoms: _124  and  _125
REMARK   49  A    between atoms: _124  and  _127
REMARK   50  A    between atoms: _127  and  _128
REMARK   51  A    between atoms: _128  and  _129
REMARK   52  A    between atoms: _129  and  _130
REMARK   53  A    between atoms: _130  and  _131
REMARK   54  A    between atoms: _135  and  _137
REMARK   55  A    between atoms: _137  and  _138
REMARK   56  A    between atoms: _137  and  _140
REMARK   57  A    between atoms: _140  and  _141
REMARK   58  A    between atoms: _143  and  _145
REMARK   59  A    between atoms: _145  and  _146
REMARK   60  A    between atoms: _145  and  _148
REMARK   61  A    between atoms: _148  and  _149
REMARK   62  A    between atoms: _149  and  _150
REMARK   63  A    between atoms: _152  and  _154
REMARK   64  A    between atoms: _154  and  _155
REMARK   65  A    between atoms: _154  and  _157
REMARK   66  A    between atoms: _157  and  _158
REMARK   67  A    between atoms: _161  and  _163
REMARK   68  A    between atoms: _163  and  _164
REMARK   69  A    between atoms: _163  and  _166
REMARK   70  A    between atoms: _166  and  _167
REMARK   71  A    between atoms: _169  and  _171
REMARK   72  A    between atoms: _171  and  _172
REMARK   73  A    between atoms: _171  and  _174
REMARK   74  A    between atoms: _177  and  _179
REMARK   75  A    between atoms: _179  and  _180
REMARK   76  A    between atoms: _179  and  _182
REMARK   77  A    between atoms: _185  and  _187
REMARK   78  A    between atoms: _187  and  _188
REMARK   79  A    between atoms: _187  and  _190
REMARK   80  A    between atoms: _190  and  _191
REMARK   81  A    between atoms: _195  and  _196
REMARK   82  A    between atoms: _201  and  _203
REMARK   83  A    between atoms: _203  and  _204
REMARK   84  A    between atoms: _203  and  _206
REMARK   85  A    between atoms: _206  and  _207
REMARK   86  A    between atoms: _212  and  _213
REMARK   87  A    between atoms: _215  and  _217
REMARK   88  A    between atoms: _217  and  _218
REMARK   89  A    between atoms: _217  and  _220
REMARK   90  A    between atoms: _220  and  _221
REMARK   91  A    between atoms: _221  and  _222
REMARK   92  A    between atoms: _224  and  _226
REMARK   93  A    between atoms: _226  and  _227
REMARK   94  A    between atoms: _226  and  _229
REMARK   95  A    between atoms: _229  and  _230
REMARK   96  A    between atoms: _230  and  _231
REMARK   97  A    between atoms: _231  and  _232
REMARK   98  A    between atoms: _232  and  _233
REMARK   99  A    between atoms: _237  and  _239
REMARK  100  A    between atoms: _239  and  _240
REMARK  101  A    between atoms: _239  and  _242
REMARK  102  A    between atoms: _242  and  _243
REMARK  103  A    between atoms: _248  and  _250
REMARK  104  A    between atoms: _250  and  _251
REMARK  105  A    between atoms: _253  and  _255
REMARK  106  A    between atoms: _255  and  _256
REMARK  107  A    between atoms: _255  and  _258
REMARK  108  A    between atoms: _258  and  _259
REMARK  109  A    between atoms: _262  and  _264
REMARK  110  A    between atoms: _264  and  _265
REMARK  111  A    between atoms: _264  and  _267
REMARK  112  A    between atoms: _267  and  _268
REMARK  113  A    between atoms: _271  and  _273
REMARK  114  A    between atoms: _273  and  _274
REMARK  115  A    between atoms: _273  and  _276
REMARK  116  A    between atoms: _276  and  _277
REMARK  117  A    between atoms: _277  and  _278
REMARK  118  A    between atoms: _278  and  _279
REMARK  119  A    between atoms: _288  and  _290
REMARK  120  A    between atoms: _290  and  _291
REMARK  121  A    between atoms: _290  and  _293
REMARK  122  A    between atoms: _293  and  _294
REMARK  123  A    between atoms: _299  and  _301
REMARK  124  A    between atoms: _301  and  _302
REMARK  125  A    between atoms: _301  and  _304
REMARK  126  A    between atoms: _304  and  _305
REMARK  127  A    between atoms: _311  and  _313
REMARK  128  A    between atoms: _313  and  _314
REMARK  129  A    between atoms: _313  and  _316
REMARK  130  A    between atoms: _316  and  _317
REMARK  131  A    between atoms: _322  and  _324
REMARK  132  A    between atoms: _324  and  _325
REMARK  133  A    between atoms: _324  and  _327
REMARK  134  A    between atoms: _327  and  _328
REMARK  135  A    between atoms: _331  and  _333
REMARK  136  A    between atoms: _333  and  _334
REMARK  137  A    between atoms: _337  and  _339
REMARK  138  A    between atoms: _339  and  _340
REMARK  139  A    between atoms: _343  and  _345
REMARK  140  A    between atoms: _345  and  _346
REMARK  141  A    between atoms: _345  and  _348
REMARK  142  A    between atoms: _348  and  _349
REMARK  143  A    between atoms: _349  and  _350
REMARK  144  A    between atoms: _350  and  _351
REMARK  145  A    between atoms: _360  and  _362
REMARK  146  A    between atoms: _362  and  _363
REMARK  147  A    between atoms: _362  and  _365
REMARK  148  A    between atoms: _365  and  _366
REMARK  149  A    between atoms: _371  and  _373
REMARK  150  A    between atoms: _373  and  _374
REMARK  151  A    between atoms: _373  and  _376
REMARK  152  A    between atoms: _378  and  _380
REMARK  153  A    between atoms: _380  and  _381
REMARK  154  A    between atoms: _380  and  _383
REMARK  155  A    between atoms: _383  and  _384
REMARK  156  A    between atoms: _384  and  _385
REMARK  157  A    between atoms: _387  and  _389
REMARK  158  A    between atoms: _389  and  _390
REMARK  159  A    between atoms: _389  and  _392
REMARK  160  A    between atoms: _392  and  _393
REMARK  161  A    between atoms: _396  and  _398
REMARK  162  A    between atoms: _398  and  _399
REMARK  163  A    between atoms: _398  and  _401
REMARK  164  A    between atoms: _401  and  _402
REMARK  165  A    between atoms: _405  and  _407
REMARK  166  A    between atoms: _407  and  _408
REMARK  167  A    between atoms: _407  and  _410
REMARK  168  A    between atoms: _410  and  _411
REMARK  169  A    between atoms: _411  and  _412
REMARK  170  A    between atoms: _412  and  _413
REMARK  171  A    between atoms: _413  and  _414
REMARK  172  A    between atoms: _418  and  _420
REMARK  173  A    between atoms: _420  and  _421
REMARK  174  A    between atoms: _420  and  _423
REMARK  175  A    between atoms: _426  and  _428
REMARK  176  A    between atoms: _428  and  _429
REMARK  177  A    between atoms: _432  and  _434
REMARK  178  A    between atoms: _434  and  _435
REMARK  179  A    between atoms: _434  and  _437
REMARK  180  A    between atoms: _437  and  _438
REMARK  181  A    between atoms: _441  and  _443
REMARK  182  A    between atoms: _443  and  _444
REMARK  183  A    between atoms: _443  and  _446
REMARK  184  A    between atoms: _446  and  _447
REMARK  185  A    between atoms: _453  and  _455
REMARK  186  A    between atoms: _455  and  _456
REMARK  187  A    between atoms: _455  and  _458
REMARK  188  A    between atoms: _458  and  _459
REMARK  189  A    between atoms: _462  and  _464
REMARK  190  A    between atoms: _464  and  _465
REMARK  191  A    between atoms: _468  and  _470
REMARK  192  A    between atoms: _470  and  _471
REMARK  193  A    between atoms: _470  and  _473
REMARK  194  A    between atoms: _473  and  _474
REMARK  195  A    between atoms: _474  and  _475
REMARK  196  A    between atoms: _475  and  _476
REMARK  197  A    between atoms: _485  and  _487
REMARK  198  A    between atoms: _487  and  _488
REMARK  199  A    between atoms: _487  and  _490
REMARK  200  A    between atoms: _490  and  _491
REMARK  201  A    between atoms: _494  and  _496
REMARK  202  A    between atoms: _496  and  _497
REMARK  203  A    between atoms: _496  and  _499
REMARK  204  A    between atoms: _499  and  _500
REMARK  205  A    between atoms: _500  and  _501
REMARK  206  A    between atoms: _503  and  _505
REMARK  207  A    between atoms: _505  and  _506
REMARK  208  A    between atoms: _505  and  _508
REMARK  209  A    between atoms: _508  and  _509
REMARK  210  A    between atoms: _514  and  _515
REMARK  211  A    between atoms: _517  and  _519
REMARK  212  A    between atoms: _519  and  _520
REMARK  213  A    between atoms: _519  and  _522
REMARK  214  A    between atoms: _522  and  _523
REMARK  215  A    between atoms: _526  and  _528
REMARK  216  A    between atoms: _528  and  _529
REMARK  217  A    between atoms: _528  and  _531
REMARK  218  A    between atoms: _531  and  _532
REMARK  219  A    between atoms: _537  and  _538
REMARK                            x       y       z     vdW  Elec       q    Type
REMARK                         _______ _______ _______ _____ _____    ______ ____
ROOT
ATOM      1  CA  ASN A   4      16.971  77.319   7.539  0.00  0.00    +0.158 C 
ENDROOT
BRANCH   1   2
ATOM      2  C   ASN A   4      18.077  77.162   8.577  0.00  0.00    +0.241 C 
ATOM      3  O   ASN A   4      17.999  77.711   9.679  0.00  0.00    -0.273 OA
ATOM      4  N   CYS A   5      19.106  76.405   8.214  0.00  0.00    -0.296 N 
ATOM      5  H   CYS A   5      19.020  75.810   7.366  0.00  0.00    +0.150 HD
BRANCH   4   6
ATOM      6  CA  CYS A   5      20.352  76.383   8.968  0.00  0.00    +0.160 C 
BRANCH   6   7
ATOM      7  C   CYS A   5      21.475  76.937   8.095  0.00  0.00    +0.242 C 
ATOM      8  N   MET A   6      22.345  77.750   8.689  0.00  0.00    -0.297 N 
ATOM      9  H   MET A   6      22.255  77.932   9.709  0.00  0.00    +0.150 HD
ATOM     10  O   CYS A   5      21.546  76.638   6.903  0.00  0.00    -0.273 OA
BRANCH   8  11
ATOM     11  CA  MET A   6      23.426  78.395   7.940  0.00  0.00    +0.149 C 
BRANCH  11  12
ATOM     12  C   MET A   6      24.785  77.839   8.367  0.00  0.00    +0.241 C 
ATOM     13  O   MET A   6      24.910  77.239   9.434  0.00  0.00    -0.273 OA
ATOM     14  N   LEU A   7      25.796  78.042   7.525  0.00  0.00    -0.297 N 
ATOM     15  H   LEU A   7      25.609  78.532   6.627  0.00  0.00    +0.150 HD
BRANCH  14  16
ATOM     16  CA  LEU A   7      27.161  77.602   7.816  0.00  0.00    +0.149 C 
BRANCH  16  17
ATOM     17  C   LEU A   7      28.105  78.795   7.764  0.00  0.00    +0.241 C 
ATOM     18  N   ASP A   8      28.842  79.034   8.846  0.00  0.00    -0.298 N 
ATOM     19  H   ASP A   8      28.762  78.407   9.672  0.00  0.00    +0.150 HD
ATOM     20  O   LEU A   7      28.173  79.483   6.745  0.00  0.00    -0.273 OA
BRANCH  18  21
ATOM     21  CA  ASP A   8      29.759  80.165   8.884  0.00  0.00    +0.148 C 
BRANCH  21  22
ATOM     22  C   ASP A   8      31.129  79.787   8.327  0.00  0.00    +0.227 C 
ATOM     23  O   ASP A   8      31.311  78.690   7.803  0.00  0.00    -0.286 OA
ENDBRANCH  21  22
BRANCH  21  24
ATOM     24  CB  ASP A   8      29.875  80.731  10.315  0.00  0.00    +0.142 C 
BRANCH  24  25
ATOM     25  CG  ASP A   8      30.712  79.863  11.249  0.00  0.00    +0.367 C 
ATOM     26  OD2 ASP A   8      30.803  80.229  12.439  0.00  0.00    -0.246 OA
ATOM     27  OD1 ASP A   8      31.280  78.835  10.820  0.00  0.00    -0.246 OA
ENDBRANCH  24  25
ENDBRANCH  21  24
ENDBRANCH  18  21
ENDBRANCH  16  17
BRANCH  16  28
ATOM     28  CB  LEU A   7      27.626  76.574   6.780  0.00  0.00    +0.029 C 
BRANCH  28  29
ATOM     29  CG  LEU A   7      27.519  75.078   7.073  0.00  0.00    +0.002 C 
ATOM     30  CD2 LEU A   7      28.384  74.720   8.265  0.00  0.00    +0.000 C 
ATOM     31  CD1 LEU A   7      27.973  74.295   5.848  0.00  0.00    +0.000 C 
ENDBRANCH  28  29
ENDBRANCH  16  28
ENDBRANCH  14  16
ENDBRANCH  11  12
BRANCH  11  32
ATOM     32  CB  MET A   6      23.404  79.911   8.168  0.00  0.00    +0.041 C 
BRANCH  32  33
ATOM     33  CG  MET A   6      22.040  80.565   7.976  0.00  0.00    +0.060 C 
BRANCH  33  34
ATOM     34  SD  MET A   6      21.419  80.442   6.287  0.00  0.00    -0.139 S 
ATOM     35  CE  MET A   6      22.541  81.552   5.428  0.00  0.00    +0.069 C 
ENDBRANCH  33  34
ENDBRANCH  32  33
ENDBRANCH  11  32
ENDBRANCH   8  11
ENDBRANCH   6   7
BRANCH   6  36
ATOM     36  CB  CYS A   5      20.681  74.952   9.402  0.00  0.00    +0.098 C 
ATOM     37  SG  CYS A   5      19.452  74.232  10.522  0.00  0.00    -0.080 S 
ENDBRANCH   6  36
ENDBRANCH   4   6
ENDBRANCH   1   2
BRANCH   1  39
ATOM     38  C   ARG A   3      17.391  76.658   5.232  0.00  0.00    +0.241 C 
ATOM     39  N   ASN A   4      17.041  76.324   6.471  0.00  0.00    -0.297 N 
ATOM     40  H   ASN A   4      16.812  75.332   6.685  0.00  0.00    +0.150 HD
ATOM     41  O   ARG A   3      17.801  77.779   4.931  0.00  0.00    -0.273 OA
BRANCH  38  42
ATOM     42  CA  ARG A   3      17.255  75.570   4.166  0.00  0.00    +0.149 C 
BRANCH  42  45
ATOM     43  C   ALA A   2      18.232  73.758   5.451  0.00  0.00    +0.241 C 
ATOM     44  O   ALA A   2      19.285  74.376   5.583  0.00  0.00    -0.273 OA
ATOM     45  N   ARG A   3      17.194  74.248   4.780  0.00  0.00    -0.297 N 
ATOM     46  H   ARG A   3      16.327  73.681   4.692  0.00  0.00    +0.150 HD
BRANCH  43  47
ATOM     47  CA  ALA A   2      18.057  72.380   6.080  0.00  0.00    +0.149 C 
ATOM     48  CB  ALA A   2      18.468  71.291   5.094  0.00  0.00    +0.031 C 
BRANCH  47  51
ATOM     49  C   ALA A   1      16.148  72.937   7.465  0.00  0.00    +0.238 C 
ATOM     50  O   ALA A   1      16.747  73.886   7.969  0.00  0.00    -0.274 OA
ATOM     51  N   ALA A   2      16.683  72.168   6.522  0.00  0.00    -0.297 N 
ATOM     52  H   ALA A   2      16.116  71.408   6.095  0.00  0.00    +0.150 HD
BRANCH  49  53
ATOM     53  CA  ALA A   1      14.733  72.596   7.917  0.00  0.00    +0.145 C 
ATOM     54  CB  ALA A   1      13.721  73.102   6.890  0.00  0.00    +0.028 C 
BRANCH  53  55
ATOM     55  N   ALA A   1      14.529  73.262   9.202  0.00  0.00    -0.238 NA
ATOM     56  H   ALA A   1      15.235  73.955   9.522  0.00  0.00    +0.142 HD
ENDBRANCH  53  55
ENDBRANCH  49  53
ENDBRANCH  47  51
ENDBRANCH  43  47
ENDBRANCH  42  45
BRANCH  42  57
ATOM     57  CB  ARG A   3      15.991  75.835   3.338  0.00  0.00    +0.033 C 
BRANCH  57  58
ATOM     58  CG  ARG A   3      14.726  75.942   4.181  0.00  0.00    +0.045 C 
BRANCH  58  59
ATOM     59  CD  ARG A   3      13.468  76.205   3.353  0.00  0.00    +0.174 C 
BRANCH  59  60
ATOM     60  NE  ARG A   3      12.284  76.009   4.185  0.00  0.00    -0.265 N 
ATOM     61  HE  ARG A   3      11.912  76.830   4.704  0.00  0.00    +0.259 HD
ATOM     62  CZ  ARG A   3      11.651  74.849   4.322  0.00  0.00    +0.342 C 
ATOM     63  NH2 ARG A   3      10.632  74.747   5.166  0.00  0.00    -0.292 N 
ATOM     64 HH21 ARG A   3      10.330  75.574   5.719  0.00  0.00    +0.255 HD
ATOM     65 HH22 ARG A   3      10.135  73.840   5.274  0.00  0.00    +0.255 HD
ATOM     66  NH1 ARG A   3      12.070  73.775   3.664  0.00  0.00    -0.292 N 
ATOM     67 HH11 ARG A   3      11.571  72.869   3.775  0.00  0.00    +0.255 HD
ATOM     68 HH12 ARG A   3      12.898  73.839   3.037  0.00  0.00    +0.255 HD
ENDBRANCH  59  60
ENDBRANCH  58  59
ENDBRANCH  57  58
ENDBRANCH  42  57
ENDBRANCH  38  42
ENDBRANCH   1  39
BRANCH   1  69
ATOM     69  CB  ASN A   4      15.595  77.267   8.205  0.00  0.00    +0.114 C 
BRANCH  69  70
ATOM     70  CG  ASN A   4      14.497  77.811   7.303  0.00  0.00    +0.222 C 
ATOM     71  ND2 ASN A   4      13.275  77.317   7.478  0.00  0.00    -0.329 N 
ATOM     72 HD21 ASN A   4      13.106  76.594   8.206  0.00  0.00    +0.145 HD
ATOM     73 HD22 ASN A   4      12.488  77.654   6.887  0.00  0.00    +0.145 HD
ATOM     74  OD1 ASN A   4      14.750  78.667   6.457  0.00  0.00    -0.275 OA
ENDBRANCH  69  70
ENDBRANCH   1  69
TORSDOF 30
REMARK  Name = ../refined-set-2016/4aoi/4aoi_pocket.pdb
REMARK  219 active torsions:
REMARK  status: ('A' for Active; 'I' for Inactive)
REMARK    1  A    between atoms: _1  and  _3
REMARK    2  A    between atoms: _3  and  _4
REMARK    3  A    between atoms: _3  and  _6
REMARK    4  A    between atoms: _9  and  _11
REMARK    5  A    between atoms: _11  and  _12
REMARK    6  A    between atoms: _11  and  _14
REMARK    7  A    between atoms: _14  and  _15
REMARK    8  A    between atoms: _18  and  _20
REMARK    9  A    between atoms: _20  and  _21
REMARK   10  A    between atoms: _23  and  _25
REMARK   11  A    between atoms: _25  and  _26
REMARK   12  A    between atoms: _25  and  _28
REMARK   13  A    between atoms: _28  and  _29
REMARK   14  A    between atoms: _29  and  _30
REMARK   15  A    between atoms: _30  and  _31
REMARK   16  A    between atoms: _40  and  _42
REMARK   17  A    between atoms: _42  and  _43
REMARK   18  A    between atoms: _45  and  _47
REMARK   19  A    between atoms: _47  and  _48
REMARK   20  A    between atoms: _47  and  _50
REMARK   21  A    between atoms: _52  and  _54
REMARK   22  A    between atoms: _54  and  _55
REMARK   23  A    between atoms: _54  and  _57
REMARK   24  A    between atoms: _60  and  _62
REMARK   25  A    between atoms: _62  and  _63
REMARK   26  A    between atoms: _62  and  _65
REMARK   27  A    between atoms: _65  and  _66
REMARK   28  A    between atoms: _71  and  _72
REMARK   29  A    between atoms: _74  and  _76
REMARK   30  A    between atoms: _76  and  _77
REMARK   31  A    between atoms: _76  and  _79
REMARK   32  A    between atoms: _79  and  _80
REMARK   33  A    between atoms: _85  and  _87
REMARK   34  A    between atoms: _87  and  _88
REMARK   35  A    between atoms: _90  and  _92
REMARK   36  A    between atoms: _92  and  _93
REMARK   37  A    between atoms: _92  and  _95
REMARK   38  A    between atoms: _95  and  _96
REMARK   39  A    between atoms: _101  and  _103
REMARK   40  A    between atoms: _103  and  _104
REMARK   41  A    between atoms: _103  and  _106
REMARK   42  A    between atoms: _108  and  _110
REMARK   43  A    between atoms: _110  and  _111
REMARK   44  A    between atoms: _114  and  _116
REMARK   45  A    between atoms: _116  and  _117
REMARK   46  A    between atoms: _116  and  _119
REMARK   47  A    between atoms: _122  and  _124
REMARK   48  A    between atoms: _124  and  _125
REMARK   49  A    between atoms: _124  and  _127
REMARK   50  A    between atoms: _127  and  _128
REMARK   51  A    between atoms: _128  and  _129
REMARK   52  A    between atoms: _129  and  _130
REMARK   53  A    between atoms: _130  and  _131
REMARK   54  A    between atoms: _135  and  _137
REMARK   55  A    between atoms: _137  and  _138
REMARK   56  A    between atoms: _137  and  _140
REMARK   57  A    between atoms: _140  and  _141
REMARK   58  A    between atoms: _143  and  _145
REMARK   59  A    between atoms: _145  and  _146
REMARK   60  A    between atoms: _145  and  _148
REMARK   61  A    between atoms: _148  and  _149
REMARK   62  A    between atoms: _149  and  _150
REMARK   63  A    between atoms: _152  and  _154
REMARK   64  A    between atoms: _154  and  _155
REMARK   65  A    between atoms: _154  and  _157
REMARK   66  A    between atoms: _157  and  _158
REMARK   67  A    between atoms: _161  and  _163
REMARK   68  A    between atoms: _163  and  _164
REMARK   69  A    between atoms: _163  and  _166
REMARK   70  A    between atoms: _166  and  _167
REMARK   71  A    between atoms: _169  and  _171
REMARK   72  A    between atoms: _171  and  _172
REMARK   73  A    between atoms: _171  and  _174
REMARK   74  A    between atoms: _177  and  _179
REMARK   75  A    between atoms: _179  and  _180
REMARK   76  A    between atoms: _179  and  _182
REMARK   77  A    between atoms: _185  and  _187
REMARK   78  A    between atoms: _187  and  _188
REMARK   79  A    between atoms: _187  and  _190
REMARK   80  A    between atoms: _190  and  _191
REMARK   81  A    between atoms: _195  and  _196
REMARK   82  A    between atoms: _201  and  _203
REMARK   83  A    between atoms: _203  and  _204
REMARK   84  A    between atoms: _203  and  _206
REMARK   85  A    between atoms: _206  and  _207
REMARK   86  A    between atoms: _212  and  _213
REMARK   87  A    between atoms: _215  and  _217
REMARK   88  A    between atoms: _217  and  _218
REMARK   89  A    between atoms: _217  and  _220
REMARK   90  A    between atoms: _220  and  _221
REMARK   91  A    between atoms: _221  and  _222
REMARK   92  A    between atoms: _224  and  _226
REMARK   93  A    between atoms: _226  and  _227
REMARK   94  A    between atoms: _226  and  _229
REMARK   95  A    between atoms: _229  and  _230
REMARK   96  A    between atoms: _230  and  _231
REMARK   97  A    between atoms: _231  and  _232
REMARK   98  A    between atoms: _232  and  _233
REMARK   99  A    between atoms: _237  and  _239
REMARK  100  A    between atoms: _239  and  _240
REMARK  101  A    between atoms: _239  and  _242
REMARK  102  A    between atoms: _242  and  _243
REMARK  103  A    between atoms: _248  and  _250
REMARK  104  A    between atoms: _250  and  _251
REMARK  105  A    between atoms: _253  and  _255
REMARK  106  A    between atoms: _255  and  _256
REMARK  107  A    between atoms: _255  and  _258
REMARK  108  A    between atoms: _258  and  _259
REMARK  109  A    between atoms: _262  and  _264
REMARK  110  A    between atoms: _264  and  _265
REMARK  111  A    between atoms: _264  and  _267
REMARK  112  A    between atoms: _267  and  _268
REMARK  113  A    between atoms: _271  and  _273
REMARK  114  A    between atoms: _273  and  _274
REMARK  115  A    between atoms: _273  and  _276
REMARK  116  A    between atoms: _276  and  _277
REMARK  117  A    between atoms: _277  and  _278
REMARK  118  A    between atoms: _278  and  _279
REMARK  119  A    between atoms: _288  and  _290
REMARK  120  A    between atoms: _290  and  _291
REMARK  121  A    between atoms: _290  and  _293
REMARK  122  A    between atoms: _293  and  _294
REMARK  123  A    between atoms: _299  and  _301
REMARK  124  A    between atoms: _301  and  _302
REMARK  125  A    between atoms: _301  and  _304
REMARK  126  A    between atoms: _304  and  _305
REMARK  127  A    between atoms: _311  and  _313
REMARK  128  A    between atoms: _313  and  _314
REMARK  129  A    between atoms: _313  and  _316
REMARK  130  A    between atoms: _316  and  _317
REMARK  131  A    between atoms: _322  and  _324
REMARK  132  A    between atoms: _324  and  _325
REMARK  133  A    between atoms: _324  and  _327
REMARK  134  A    between atoms: _327  and  _328
REMARK  135  A    between atoms: _331  and  _333
REMARK  136  A    between atoms: _333  and  _334
REMARK  137  A    between atoms: _337  and  _339
REMARK  138  A    between atoms: _339  and  _340
REMARK  139  A    between atoms: _343  and  _345
REMARK  140  A    between atoms: _345  and  _346
REMARK  141  A    between atoms: _345  and  _348
REMARK  142  A    between atoms: _348  and  _349
REMARK  143  A    between atoms: _349  and  _350
REMARK  144  A    between atoms: _350  and  _351
REMARK  145  A    between atoms: _360  and  _362
REMARK  146  A    between atoms: _362  and  _363
REMARK  147  A    between atoms: _362  and  _365
REMARK  148  A    between atoms: _365  and  _366
REMARK  149  A    between atoms: _371  and  _373
REMARK  150  A    between atoms: _373  and  _374
REMARK  151  A    between atoms: _373  and  _376
REMARK  152  A    between atoms: _378  and  _380
REMARK  153  A    between atoms: _380  and  _381
REMARK  154  A    between atoms: _380  and  _383
REMARK  155  A    between atoms: _383  and  _384
REMARK  156  A    between atoms: _384  and  _385
REMARK  157  A    between atoms: _387  and  _389
REMARK  158  A    between atoms: _389  and  _390
REMARK  159  A    between atoms: _389  and  _392
REMARK  160  A    between atoms: _392  and  _393
REMARK  161  A    between atoms: _396  and  _398
REMARK  162  A    between atoms: _398  and  _399
REMARK  163  A    between atoms: _398  and  _401
REMARK  164  A    between atoms: _401  and  _402
REMARK  165  A    between atoms: _405  and  _407
REMARK  166  A    between atoms: _407  and  _408
REMARK  167  A    between atoms: _407  and  _410
REMARK  168  A    between atoms: _410  and  _411
REMARK  169  A    between atoms: _411  and  _412
REMARK  170  A    between atoms: _412  and  _413
REMARK  171  A    between atoms: _413  and  _414
REMARK  172  A    between atoms: _418  and  _420
REMARK  173  A    between atoms: _420  and  _421
REMARK  174  A    between atoms: _420  and  _423
REMARK  175  A    between atoms: _426  and  _428
REMARK  176  A    between atoms: _428  and  _429
REMARK  177  A    between atoms: _432  and  _434
REMARK  178  A    between atoms: _434  and  _435
REMARK  179  A    between atoms: _434  and  _437
REMARK  180  A    between atoms: _437  and  _438
REMARK  181  A    between atoms: _441  and  _443
REMARK  182  A    between atoms: _443  and  _444
REMARK  183  A    between atoms: _443  and  _446
REMARK  184  A    between atoms: _446  and  _447
REMARK  185  A    between atoms: _453  and  _455
REMARK  186  A    between atoms: _455  and  _456
REMARK  187  A    between atoms: _455  and  _458
REMARK  188  A    between atoms: _458  and  _459
REMARK  189  A    between atoms: _462  and  _464
REMARK  190  A    between atoms: _464  and  _465
REMARK  191  A    between atoms: _468  and  _470
REMARK  192  A    between atoms: _470  and  _471
REMARK  193  A    between atoms: _470  and  _473
REMARK  194  A    between atoms: _473  and  _474
REMARK  195  A    between atoms: _474  and  _475
REMARK  196  A    between atoms: _475  and  _476
REMARK  197  A    between atoms: _485  and  _487
REMARK  198  A    between atoms: _487  and  _488
REMARK  199  A    between atoms: _487  and  _490
REMARK  200  A    between atoms: _490  and  _491
REMARK  201  A    between atoms: _494  and  _496
REMARK  202  A    between atoms: _496  and  _497
REMARK  203  A    between atoms: _496  and  _499
REMARK  204  A    between atoms: _499  and  _500
REMARK  205  A    between atoms: _500  and  _501
REMARK  206  A    between atoms: _503  and  _505
REMARK  207  A    between atoms: _505  and  _506
REMARK  208  A    between atoms: _505  and  _508
REMARK  209  A    between atoms: _508  and  _509
REMARK  210  A    between atoms: _514  and  _515
REMARK  211  A    between atoms: _517  and  _519
REMARK  212  A    between atoms: _519  and  _520
REMARK  213  A    between atoms: _519  and  _522
REMARK  214  A    between atoms: _522  and  _523
REMARK  215  A    between atoms: _526  and  _528
REMARK  216  A    between atoms: _528  and  _529
REMARK  217  A    between atoms: _528  and  _531
REMARK  218  A    between atoms: _531  and  _532
REMARK  219  A    between atoms: _537  and  _538
REMARK                            x       y       z     vdW  Elec       q    Type
REMARK                         _______ _______ _______ _____ _____    ______ ____
ROOT
ATOM      1  CA  ALA A   3      18.606  80.122  11.811  0.00  0.00    +0.149 C 
ATOM      2  CB  ALA A   3      19.424  80.534  10.592  0.00  0.00    +0.031 C 
ENDROOT
BRANCH   1   3
ATOM      3  C   ALA A   3      17.114  80.257  11.516  0.00  0.00    +0.241 C 
ATOM      4  O   ALA A   3      16.317  79.429  11.947  0.00  0.00    -0.273 OA
ATOM      5  N   ASP A   4      16.747  81.310  10.790  0.00  0.00    -0.297 N 
ATOM      6  H   ASP A   4      17.482  81.968  10.461  0.00  0.00    +0.150 HD
BRANCH   5   7
ATOM      7  CA  ASP A   4      15.351  81.583  10.434  0.00  0.00    +0.160 C 
BRANCH   7   8
ATOM      8  C   ASP A   4      14.412  81.496  11.641  0.00  0.00    +0.241 C 
ATOM      9  N   PHE A   5      14.753  82.219  12.704  0.00  0.00    -0.298 N 
ATOM     10  H   PHE A   5      15.669  82.711  12.711  0.00  0.00    +0.150 HD
ATOM     11  O   ASP A   4      13.406  80.782  11.613  0.00  0.00    -0.273 OA
BRANCH   9  12
ATOM     12  CA  PHE A   5      13.871  82.338  13.860  0.00  0.00    +0.141 C 
BRANCH  12  13
ATOM     13  C   PHE A   5      14.007  83.736  14.456  0.00  0.00    +0.227 C 
ATOM     14  O   PHE A   5      14.966  84.460  14.162  0.00  0.00    -0.286 OA
ENDBRANCH  12  13
BRANCH  12  15
ATOM     15  CB  PHE A   5      14.224  81.289  14.922  0.00  0.00    +0.054 C 
BRANCH  15  16
ATOM     16  CG  PHE A   5      15.470  81.608  15.700  0.00  0.00    -0.020 A 
ATOM     17  CD2 PHE A   5      15.402  82.354  16.869  0.00  0.00    -0.004 A 
ATOM     18  CE2 PHE A   5      16.545  82.667  17.579  0.00  0.00    -0.000 A 
ATOM     19  CZ  PHE A   5      17.775  82.236  17.127  0.00  0.00    -0.000 A 
ATOM     20  CE1 PHE A   5      17.859  81.490  15.963  0.00  0.00    -0.000 A 
ATOM     21  CD1 PHE A   5      16.711  81.180  15.256  0.00  0.00    -0.004 A 
ENDBRANCH  15  16
ENDBRANCH  12  15
ENDBRANCH   9  12
ENDBRANCH   7   8
BRANCH   7  22
ATOM     22  CB  ASP A   4      14.874  80.616   9.336  0.00  0.00    +0.143 C 
BRANCH  22  23
ATOM     23  CG  ASP A   4      13.580  81.077   8.668  0.00  0.00    +0.367 C 
ATOM     24  OD2 ASP A   4      13.104  82.185   8.979  0.00  0.00    -0.246 OA
ATOM     25  OD1 ASP A   4      13.036  80.334   7.824  0.00  0.00    -0.246 OA
ENDBRANCH  22  23
ENDBRANCH   7  22
ENDBRANCH   5   7
ENDBRANCH   1   3
BRANCH   1  28
ATOM     26  C   VAL A   2      19.681  78.524  13.302  0.00  0.00    +0.241 C 
ATOM     27  O   VAL A   2      19.972  79.400  14.113  0.00  0.00    -0.273 OA
ATOM     28  N   ALA A   3      18.963  78.762  12.210  0.00  0.00    -0.297 N 
ATOM     29  H   ALA A   3      18.648  77.962  11.625  0.00  0.00    +0.150 HD
BRANCH  26  30
ATOM     30  CA  VAL A   2      20.165  77.091  13.505  0.00  0.00    +0.148 C 
BRANCH  30  32
ATOM     31  C   LYS A   1      22.374  77.597  12.674  0.00  0.00    +0.238 C 
ATOM     32  N   VAL A   2      21.612  77.156  13.669  0.00  0.00    -0.297 N 
ATOM     33  H   VAL A   2      22.048  76.857  14.565  0.00  0.00    +0.150 HD
ATOM     34  O   LYS A   1      21.935  77.787  11.541  0.00  0.00    -0.274 OA
BRANCH  31  35
ATOM     35  CA  LYS A   1      23.842  77.881  12.987  0.00  0.00    +0.145 C 
BRANCH  35  36
ATOM     36  N   LYS A   1      24.695  77.055  12.138  0.00  0.00    -0.238 NA
ATOM     37  H   LYS A   1      24.737  77.249  11.117  0.00  0.00    +0.142 HD
ENDBRANCH  35  36
BRANCH  35  38
ATOM     38  CB  LYS A   1      24.118  79.367  12.741  0.00  0.00    +0.026 C 
BRANCH  38  39
ATOM     39  CG  LYS A   1      25.586  79.762  12.769  0.00  0.00    -0.000 C 
BRANCH  39  40
ATOM     40  CD  LYS A   1      26.177  79.635  14.157  0.00  0.00    -0.024 C 
BRANCH  40  41
ATOM     41  CE  LYS A   1      27.565  80.267  14.214  0.00  0.00    -0.086 C 
BRANCH  41  42
ATOM     42  NZ  LYS A   1      28.078  80.337  15.604  0.00  0.00    +0.380 N 
ATOM     43  HZ1 LYS A   1      27.432  80.911  16.182  0.00  0.00    -0.089 HD
ATOM     44  HZ2 LYS A   1      28.138  79.377  15.999  0.00  0.00    -0.089 HD
ATOM     45  HZ3 LYS A   1      29.023  80.772  15.602  0.00  0.00    -0.089 HD
ENDBRANCH  41  42
ENDBRANCH  40  41
ENDBRANCH  39  40
ENDBRANCH  38  39
ENDBRANCH  35  38
ENDBRANCH  31  35
ENDBRANCH  30  32
BRANCH  30  46
ATOM     46  CB  VAL A   2      19.480  76.481  14.750  0.00  0.00    +0.027 C 
ATOM     47  CG2 VAL A   2      19.932  75.026  14.931  0.00  0.00    +0.002 C 
ATOM     48  CG1 VAL A   2      17.965  76.543  14.599  0.00  0.00    +0.002 C 
ENDBRANCH  30  46
ENDBRANCH  26  30
ENDBRANCH   1  28
TORSDOF 20
REMARK  Name = ../refined-set-2016/4aoi/4aoi_pocket.pdb
REMARK  219 active torsions:
REMARK  status: ('A' for Active; 'I' for Inactive)
REMARK    1  A    between atoms: _1  and  _3
REMARK    2  A    between atoms: _3  and  _4
REMARK    3  A    between atoms: _3  and  _6
REMARK    4  A    between atoms: _9  and  _11
REMARK    5  A    between atoms: _11  and  _12
REMARK    6  A    between atoms: _11  and  _14
REMARK    7  A    between atoms: _14  and  _15
REMARK    8  A    between atoms: _18  and  _20
REMARK    9  A    between atoms: _20  and  _21
REMARK   10  A    between atoms: _23  and  _25
REMARK   11  A    between atoms: _25  and  _26
REMARK   12  A    between atoms: _25  and  _28
REMARK   13  A    between atoms: _28  and  _29
REMARK   14  A    between atoms: _29  and  _30
REMARK   15  A    between atoms: _30  and  _31
REMARK   16  A    between atoms: _40  and  _42
REMARK   17  A    between atoms: _42  and  _43
REMARK   18  A    between atoms: _45  and  _47
REMARK   19  A    between atoms: _47  and  _48
REMARK   20  A    between atoms: _47  and  _50
REMARK   21  A    between atoms: _52  and  _54
REMARK   22  A    between atoms: _54  and  _55
REMARK   23  A    between atoms: _54  and  _57
REMARK   24  A    between atoms: _60  and  _62
REMARK   25  A    between atoms: _62  and  _63
REMARK   26  A    between atoms: _62  and  _65
REMARK   27  A    between atoms: _65  and  _66
REMARK   28  A    between atoms: _71  and  _72
REMARK   29  A    between atoms: _74  and  _76
REMARK   30  A    between atoms: _76  and  _77
REMARK   31  A    between atoms: _76  and  _79
REMARK   32  A    between atoms: _79  and  _80
REMARK   33  A    between atoms: _85  and  _87
REMARK   34  A    between atoms: _87  and  _88
REMARK   35  A    between atoms: _90  and  _92
REMARK   36  A    between atoms: _92  and  _93
REMARK   37  A    between atoms: _92  and  _95
REMARK   38  A    between atoms: _95  and  _96
REMARK   39  A    between atoms: _101  and  _103
REMARK   40  A    between atoms: _103  and  _104
REMARK   41  A    between atoms: _103  and  _106
REMARK   42  A    between atoms: _108  and  _110
REMARK   43  A    between atoms: _110  and  _111
REMARK   44  A    between atoms: _114  and  _116
REMARK   45  A    between atoms: _116  and  _117
REMARK   46  A    between atoms: _116  and  _119
REMARK   47  A    between atoms: _122  and  _124
REMARK   48  A    between atoms: _124  and  _125
REMARK   49  A    between atoms: _124  and  _127
REMARK   50  A    between atoms: _127  and  _128
REMARK   51  A    between atoms: _128  and  _129
REMARK   52  A    between atoms: _129  and  _130
REMARK   53  A    between atoms: _130  and  _131
REMARK   54  A    between atoms: _135  and  _137
REMARK   55  A    between atoms: _137  and  _138
REMARK   56  A    between atoms: _137  and  _140
REMARK   57  A    between atoms: _140  and  _141
REMARK   58  A    between atoms: _143  and  _145
REMARK   59  A    between atoms: _145  and  _146
REMARK   60  A    between atoms: _145  and  _148
REMARK   61  A    between atoms: _148  and  _149
REMARK   62  A    between atoms: _149  and  _150
REMARK   63  A    between atoms: _152  and  _154
REMARK   64  A    between atoms: _154  and  _155
REMARK   65  A    between atoms: _154  and  _157
REMARK   66  A    between atoms: _157  and  _158
REMARK   67  A    between atoms: _161  and  _163
REMARK   68  A    between atoms: _163  and  _164
REMARK   69  A    between atoms: _163  and  _166
REMARK   70  A    between atoms: _166  and  _167
REMARK   71  A    between atoms: _169  and  _171
REMARK   72  A    between atoms: _171  and  _172
REMARK   73  A    between atoms: _171  and  _174
REMARK   74  A    between atoms: _177  and  _179
REMARK   75  A    between atoms: _179  and  _180
REMARK   76  A    between atoms: _179  and  _182
REMARK   77  A    between atoms: _185  and  _187
REMARK   78  A    between atoms: _187  and  _188
REMARK   79  A    between atoms: _187  and  _190
REMARK   80  A    between atoms: _190  and  _191
REMARK   81  A    between atoms: _195  and  _196
REMARK   82  A    between atoms: _201  and  _203
REMARK   83  A    between atoms: _203  and  _204
REMARK   84  A    between atoms: _203  and  _206
REMARK   85  A    between atoms: _206  and  _207
REMARK   86  A    between atoms: _212  and  _213
REMARK   87  A    between atoms: _215  and  _217
REMARK   88  A    between atoms: _217  and  _218
REMARK   89  A    between atoms: _217  and  _220
REMARK   90  A    between atoms: _220  and  _221
REMARK   91  A    between atoms: _221  and  _222
REMARK   92  A    between atoms: _224  and  _226
REMARK   93  A    between atoms: _226  and  _227
REMARK   94  A    between atoms: _226  and  _229
REMARK   95  A    between atoms: _229  and  _230
REMARK   96  A    between atoms: _230  and  _231
REMARK   97  A    between atoms: _231  and  _232
REMARK   98  A    between atoms: _232  and  _233
REMARK   99  A    between atoms: _237  and  _239
REMARK  100  A    between atoms: _239  and  _240
REMARK  101  A    between atoms: _239  and  _242
REMARK  102  A    between atoms: _242  and  _243
REMARK  103  A    between atoms: _248  and  _250
REMARK  104  A    between atoms: _250  and  _251
REMARK  105  A    between atoms: _253  and  _255
REMARK  106  A    between atoms: _255  and  _256
REMARK  107  A    between atoms: _255  and  _258
REMARK  108  A    between atoms: _258  and  _259
REMARK  109  A    between atoms: _262  and  _264
REMARK  110  A    between atoms: _264  and  _265
REMARK  111  A    between atoms: _264  and  _267
REMARK  112  A    between atoms: _267  and  _268
REMARK  113  A    between atoms: _271  and  _273
REMARK  114  A    between atoms: _273  and  _274
REMARK  115  A    between atoms: _273  and  _276
REMARK  116  A    between atoms: _276  and  _277
REMARK  117  A    between atoms: _277  and  _278
REMARK  118  A    between atoms: _278  and  _279
REMARK  119  A    between atoms: _288  and  _290
REMARK  120  A    between atoms: _290  and  _291
REMARK  121  A    between atoms: _290  and  _293
REMARK  122  A    between atoms: _293  and  _294
REMARK  123  A    between atoms: _299  and  _301
REMARK  124  A    between atoms: _301  and  _302
REMARK  125  A    between atoms: _301  and  _304
REMARK  126  A    between atoms: _304  and  _305
REMARK  127  A    between atoms: _311  and  _313
REMARK  128  A    between atoms: _313  and  _314
REMARK  129  A    between atoms: _313  and  _316
REMARK  130  A    between atoms: _316  and  _317
REMARK  131  A    between atoms: _322  and  _324
REMARK  132  A    between atoms: _324  and  _325
REMARK  133  A    between atoms: _324  and  _327
REMARK  134  A    between atoms: _327  and  _328
REMARK  135  A    between atoms: _331  and  _333
REMARK  136  A    between atoms: _333  and  _334
REMARK  137  A    between atoms: _337  and  _339
REMARK  138  A    between atoms: _339  and  _340
REMARK  139  A    between atoms: _343  and  _345
REMARK  140  A    between atoms: _345  and  _346
REMARK  141  A    between atoms: _345  and  _348
REMARK  142  A    between atoms: _348  and  _349
REMARK  143  A    between atoms: _349  and  _350
REMARK  144  A    between atoms: _350  and  _351
REMARK  145  A    between atoms: _360  and  _362
REMARK  146  A    between atoms: _362  and  _363
REMARK  147  A    between atoms: _362  and  _365
REMARK  148  A    between atoms: _365  and  _366
REMARK  149  A    between atoms: _371  and  _373
REMARK  150  A    between atoms: _373  and  _374
REMARK  151  A    between atoms: _373  and  _376
REMARK  152  A    between atoms: _378  and  _380
REMARK  153  A    between atoms: _380  and  _381
REMARK  154  A    between atoms: _380  and  _383
REMARK  155  A    between atoms: _383  and  _384
REMARK  156  A    between atoms: _384  and  _385
REMARK  157  A    between atoms: _387  and  _389
REMARK  158  A    between atoms: _389  and  _390
REMARK  159  A    between atoms: _389  and  _392
REMARK  160  A    between atoms: _392  and  _393
REMARK  161  A    between atoms: _396  and  _398
REMARK  162  A    between atoms: _398  and  _399
REMARK  163  A    between atoms: _398  and  _401
REMARK  164  A    between atoms: _401  and  _402
REMARK  165  A    between atoms: _405  and  _407
REMARK  166  A    between atoms: _407  and  _408
REMARK  167  A    between atoms: _407  and  _410
REMARK  168  A    between atoms: _410  and  _411
REMARK  169  A    between atoms: _411  and  _412
REMARK  170  A    between atoms: _412  and  _413
REMARK  171  A    between atoms: _413  and  _414
REMARK  172  A    between atoms: _418  and  _420
REMARK  173  A    between atoms: _420  and  _421
REMARK  174  A    between atoms: _420  and  _423
REMARK  175  A    between atoms: _426  and  _428
REMARK  176  A    between atoms: _428  and  _429
REMARK  177  A    between atoms: _432  and  _434
REMARK  178  A    between atoms: _434  and  _435
REMARK  179  A    between atoms: _434  and  _437
REMARK  180  A    between atoms: _437  and  _438
REMARK  181  A    between atoms: _441  and  _443
REMARK  182  A    between atoms: _443  and  _444
REMARK  183  A    between atoms: _443  and  _446
REMARK  184  A    between atoms: _446  and  _447
REMARK  185  A    between atoms: _453  and  _455
REMARK  186  A    between atoms: _455  and  _456
REMARK  187  A    between atoms: _455  and  _458
REMARK  188  A    between atoms: _458  and  _459
REMARK  189  A    between atoms: _462  and  _464
REMARK  190  A    between atoms: _464  and  _465
REMARK  191  A    between atoms: _468  and  _470
REMARK  192  A    between atoms: _470  and  _471
REMARK  193  A    between atoms: _470  and  _473
REMARK  194  A    between atoms: _473  and  _474
REMARK  195  A    between atoms: _474  and  _475
REMARK  196  A    between atoms: _475  and  _476
REMARK  197  A    between atoms: _485  and  _487
REMARK  198  A    between atoms: _487  and  _488
REMARK  199  A    between atoms: _487  and  _490
REMARK  200  A    between atoms: _490  and  _491
REMARK  201  A    between atoms: _494  and  _496
REMARK  202  A    between atoms: _496  and  _497
REMARK  203  A    between atoms: _496  and  _499
REMARK  204  A    between atoms: _499  and  _500
REMARK  205  A    between atoms: _500  and  _501
REMARK  206  A    between atoms: _503  and  _505
REMARK  207  A    between atoms: _505  and  _506
REMARK  208  A    between atoms: _505  and  _508
REMARK  209  A    between atoms: _508  and  _509
REMARK  210  A    between atoms: _514  and  _515
REMARK  211  A    between atoms: _517  and  _519
REMARK  212  A    between atoms: _519  and  _520
REMARK  213  A    between atoms: _519  and  _522
REMARK  214  A    between atoms: _522  and  _523
REMARK  215  A    between atoms: _526  and  _528
REMARK  216  A    between atoms: _528  and  _529
REMARK  217  A    between atoms: _528  and  _531
REMARK  218  A    between atoms: _531  and  _532
REMARK  219  A    between atoms: _537  and  _538
REMARK                            x       y       z     vdW  Elec       q    Type
REMARK                         _______ _______ _______ _____ _____    ______ ____
ROOT
ATOM      1  CA  ASP A   4      10.924  84.623   6.963  0.00  0.00    +0.160 C 
ENDROOT
BRANCH   1   4
ATOM      2  C   ARG A   3      11.650  85.208   9.220  0.00  0.00    +0.241 C 
ATOM      3  O   ARG A   3      11.275  86.376   9.106  0.00  0.00    -0.273 OA
ATOM      4  N   ASP A   4      11.573  84.317   8.235  0.00  0.00    -0.297 N 
ATOM      5  H   ASP A   4      11.988  83.374   8.375  0.00  0.00    +0.150 HD
BRANCH   2   6
ATOM      6  CA  ARG A   3      12.217  84.696  10.538  0.00  0.00    +0.149 C 
BRANCH   6   8
ATOM      7  C   ALA A   2      14.427  85.697  10.484  0.00  0.00    +0.241 C 
ATOM      8  N   ARG A   3      13.250  85.572  11.092  0.00  0.00    -0.297 N 
ATOM      9  H   ARG A   3      13.063  86.101  11.968  0.00  0.00    +0.150 HD
ATOM     10  O   ALA A   2      14.670  85.164   9.401  0.00  0.00    -0.273 OA
BRANCH   7  11
ATOM     11  CA  ALA A   2      15.492  86.540  11.191  0.00  0.00    +0.149 C 
ATOM     12  CB  ALA A   2      16.767  85.723  11.375  0.00  0.00    +0.031 C 
BRANCH  11  14
ATOM     13  C   LEU A   1      14.426  88.216  12.587  0.00  0.00    +0.238 C 
ATOM     14  N   ALA A   2      15.031  87.036  12.481  0.00  0.00    -0.297 N 
ATOM     15  H   ALA A   2      15.177  86.458  13.333  0.00  0.00    +0.150 HD
ATOM     16  O   LEU A   1      14.244  88.956  11.620  0.00  0.00    -0.274 OA
BRANCH  13  17
ATOM     17  CA  LEU A   1      13.951  88.618  13.985  0.00  0.00    +0.145 C 
BRANCH  17  18
ATOM     18  N   LEU A   1      13.956  87.488  14.906  0.00  0.00    -0.238 NA
ATOM     19  H   LEU A   1      14.670  87.444  15.661  0.00  0.00    +0.142 HD
ENDBRANCH  17  18
BRANCH  17  20
ATOM     20  CB  LEU A   1      14.829  89.742  14.537  0.00  0.00    +0.026 C 
BRANCH  20  21
ATOM     21  CG  LEU A   1      14.392  90.296  15.898  0.00  0.00    +0.002 C 
ATOM     22  CD2 LEU A   1      15.372  91.372  16.359  0.00  0.00    +0.000 C 
ATOM     23  CD1 LEU A   1      12.987  90.869  15.787  0.00  0.00    +0.000 C 
ENDBRANCH  20  21
ENDBRANCH  17  20
ENDBRANCH  13  17
ENDBRANCH  11  14
ENDBRANCH   7  11
ENDBRANCH   6   8
BRANCH   6  24
ATOM     24  CB  ARG A   3      11.057  84.514  11.517  0.00  0.00    +0.033 C 
BRANCH  24  25
ATOM     25  CG  ARG A   3       9.938  83.648  10.940  0.00  0.00    +0.045 C 
BRANCH  25  26
ATOM     26  CD  ARG A   3       8.779  83.462  11.906  0.00  0.00    +0.174 C 
BRANCH  26  27
ATOM     27  NE  ARG A   3       8.035  84.698  12.126  0.00  0.00    -0.265 N 
ATOM     28  HE  ARG A   3       8.295  85.279  12.948  0.00  0.00    +0.259 HD
ATOM     29  CZ  ARG A   3       7.047  85.133  11.347  0.00  0.00    +0.342 C 
ATOM     30  NH2 ARG A   3       6.425  86.265  11.641  0.00  0.00    -0.292 N 
ATOM     31 HH21 ARG A   3       6.709  86.812  12.479  0.00  0.00    +0.255 HD
ATOM     32 HH22 ARG A   3       5.653  86.607  11.034  0.00  0.00    +0.255 HD
ATOM     33  NH1 ARG A   3       6.674  84.436  10.282  0.00  0.00    -0.292 N 
ATOM     34 HH11 ARG A   3       7.154  83.543  10.051  0.00  0.00    +0.255 HD
ATOM     35 HH12 ARG A   3       5.901  84.782   9.678  0.00  0.00    +0.255 HD
ENDBRANCH  26  27
ENDBRANCH  25  26
ENDBRANCH  24  25
ENDBRANCH   6  24
ENDBRANCH   2   6
ENDBRANCH   1   4
BRANCH   1  36
ATOM     36  C   ASP A   4      10.786  83.325   6.169  0.00  0.00    +0.241 C 
ATOM     37  O   ASP A   4      11.142  82.254   6.656  0.00  0.00    -0.273 OA
ATOM     38  N   MET A   5      10.255  83.421   4.957  0.00  0.00    -0.297 N 
ATOM     39  H   MET A   5       9.833  84.322   4.654  0.00  0.00    +0.150 HD
BRANCH  38  40
ATOM     40  CA  MET A   5      10.253  82.286   4.042  0.00  0.00    +0.149 C 
BRANCH  40  41
ATOM     41  C   MET A   5      11.296  82.525   2.960  0.00  0.00    +0.241 C 
ATOM     42  N   TYR A   6      12.412  81.806   3.050  0.00  0.00    -0.297 N 
ATOM     43  H   TYR A   6      12.468  81.041   3.752  0.00  0.00    +0.150 HD
ATOM     44  O   MET A   5      11.097  83.348   2.066  0.00  0.00    -0.273 OA
BRANCH  42  45
ATOM     45  CA  TYR A   6      13.558  82.066   2.187  0.00  0.00    +0.153 C 
BRANCH  45  46
ATOM     46  C   TYR A   6      13.569  81.198   0.929  0.00  0.00    +0.241 C 
ATOM     47  N   ASP A   7      12.668  80.224   0.864  0.00  0.00    -0.298 N 
ATOM     48  H   ASP A   7      12.128  79.970   1.716  0.00  0.00    +0.150 HD
ATOM     49  O   TYR A   6      14.384  81.403   0.033  0.00  0.00    -0.273 OA
BRANCH  47  50
ATOM     50  CA  ASP A   7      12.422  79.503  -0.383  0.00  0.00    +0.148 C 
BRANCH  50  51
ATOM     51  C   ASP A   7      10.931  79.219  -0.472  0.00  0.00    +0.227 C 
ATOM     52  O   ASP A   7      10.422  78.316   0.196  0.00  0.00    -0.286 OA
ENDBRANCH  50  51
BRANCH  50  53
ATOM     53  CB  ASP A   7      13.207  78.184  -0.415  0.00  0.00    +0.142 C 
BRANCH  53  54
ATOM     54  CG  ASP A   7      13.080  77.454  -1.751  0.00  0.00    +0.367 C 
ATOM     55  OD2 ASP A   7      13.890  76.539  -2.011  0.00  0.00    -0.246 OA
ATOM     56  OD1 ASP A   7      12.173  77.797  -2.541  0.00  0.00    -0.246 OA
ENDBRANCH  53  54
ENDBRANCH  50  53
ENDBRANCH  47  50
ENDBRANCH  45  46
BRANCH  45  57
ATOM     57  CB  TYR A   6      14.858  81.863   2.973  0.00  0.00    +0.055 C 
BRANCH  57  58
ATOM     58  CG  TYR A   6      15.085  82.901   4.053  0.00  0.00    -0.020 A 
ATOM     59  CD2 TYR A   6      14.766  82.637   5.381  0.00  0.00    -0.001 A 
ATOM     60  CE2 TYR A   6      14.992  83.578   6.372  0.00  0.00    +0.036 A 
ATOM     61  CZ  TYR A   6      15.541  84.803   6.041  0.00  0.00    +0.134 A 
ATOM     62  CE1 TYR A   6      15.860  85.089   4.732  0.00  0.00    +0.036 A 
ATOM     63  CD1 TYR A   6      15.633  84.141   3.746  0.00  0.00    -0.001 A 
BRANCH  61  64
ATOM     64  OH  TYR A   6      15.782  85.743   7.025  0.00  0.00    -0.506 OA
ATOM     65  HH  TYR A   6      14.930  85.976   7.473  0.00  0.00    +0.292 HD
ENDBRANCH  61  64
ENDBRANCH  57  58
ENDBRANCH  45  57
ENDBRANCH  42  45
ENDBRANCH  40  41
BRANCH  40  66
ATOM     66  CB  MET A   5       8.865  82.115   3.416  0.00  0.00    +0.041 C 
BRANCH  66  67
ATOM     67  CG  MET A   5       7.785  81.767   4.432  0.00  0.00    +0.060 C 
BRANCH  67  68
ATOM     68  SD  MET A   5       6.145  81.612   3.704  0.00  0.00    -0.139 S 
ATOM     69  CE  MET A   5       6.559  81.520   1.934  0.00  0.00    +0.069 C 
ENDBRANCH  67  68
ENDBRANCH  66  67
ENDBRANCH  40  66
ENDBRANCH  38  40
ENDBRANCH   1  36
BRANCH   1  70
ATOM     70  CB  ASP A   4      11.761  85.635   6.172  0.00  0.00    +0.143 C 
BRANCH  70  71
ATOM     71  CG  ASP A   4      10.914  86.521   5.272  0.00  0.00    +0.367 C 
ATOM     72  OD2 ASP A   4      11.272  87.707   5.095  0.00  0.00    -0.246 OA
ATOM     73  OD1 ASP A   4       9.893  86.039   4.739  0.00  0.00    -0.246 OA
ENDBRANCH  70  71
ENDBRANCH   1  70
TORSDOF 30
REMARK  Name = ../refined-set-2016/4aoi/4aoi_pocket.pdb
REMARK  219 active torsions:
REMARK  status: ('A' for Active; 'I' for Inactive)
REMARK    1  A    between atoms: _1  and  _3
REMARK    2  A    between atoms: _3  and  _4
REMARK    3  A    between atoms: _3  and  _6
REMARK    4  A    between atoms: _9  and  _11
REMARK    5  A    between atoms: _11  and  _12
REMARK    6  A    between atoms: _11  and  _14
REMARK    7  A    between atoms: _14  and  _15
REMARK    8  A    between atoms: _18  and  _20
REMARK    9  A    between atoms: _20  and  _21
REMARK   10  A    between atoms: _23  and  _25
REMARK   11  A    between atoms: _25  and  _26
REMARK   12  A    between atoms: _25  and  _28
REMARK   13  A    between atoms: _28  and  _29
REMARK   14  A    between atoms: _29  and  _30
REMARK   15  A    between atoms: _30  and  _31
REMARK   16  A    between atoms: _40  and  _42
REMARK   17  A    between atoms: _42  and  _43
REMARK   18  A    between atoms: _45  and  _47
REMARK   19  A    between atoms: _47  and  _48
REMARK   20  A    between atoms: _47  and  _50
REMARK   21  A    between atoms: _52  and  _54
REMARK   22  A    between atoms: _54  and  _55
REMARK   23  A    between atoms: _54  and  _57
REMARK   24  A    between atoms: _60  and  _62
REMARK   25  A    between atoms: _62  and  _63
REMARK   26  A    between atoms: _62  and  _65
REMARK   27  A    between atoms: _65  and  _66
REMARK   28  A    between atoms: _71  and  _72
REMARK   29  A    between atoms: _74  and  _76
REMARK   30  A    between atoms: _76  and  _77
REMARK   31  A    between atoms: _76  and  _79
REMARK   32  A    between atoms: _79  and  _80
REMARK   33  A    between atoms: _85  and  _87
REMARK   34  A    between atoms: _87  and  _88
REMARK   35  A    between atoms: _90  and  _92
REMARK   36  A    between atoms: _92  and  _93
REMARK   37  A    between atoms: _92  and  _95
REMARK   38  A    between atoms: _95  and  _96
REMARK   39  A    between atoms: _101  and  _103
REMARK   40  A    between atoms: _103  and  _104
REMARK   41  A    between atoms: _103  and  _106
REMARK   42  A    between atoms: _108  and  _110
REMARK   43  A    between atoms: _110  and  _111
REMARK   44  A    between atoms: _114  and  _116
REMARK   45  A    between atoms: _116  and  _117
REMARK   46  A    between atoms: _116  and  _119
REMARK   47  A    between atoms: _122  and  _124
REMARK   48  A    between atoms: _124  and  _125
REMARK   49  A    between atoms: _124  and  _127
REMARK   50  A    between atoms: _127  and  _128
REMARK   51  A    between atoms: _128  and  _129
REMARK   52  A    between atoms: _129  and  _130
REMARK   53  A    between atoms: _130  and  _131
REMARK   54  A    between atoms: _135  and  _137
REMARK   55  A    between atoms: _137  and  _138
REMARK   56  A    between atoms: _137  and  _140
REMARK   57  A    between atoms: _140  and  _141
REMARK   58  A    between atoms: _143  and  _145
REMARK   59  A    between atoms: _145  and  _146
REMARK   60  A    between atoms: _145  and  _148
REMARK   61  A    between atoms: _148  and  _149
REMARK   62  A    between atoms: _149  and  _150
REMARK   63  A    between atoms: _152  and  _154
REMARK   64  A    between atoms: _154  and  _155
REMARK   65  A    between atoms: _154  and  _157
REMARK   66  A    between atoms: _157  and  _158
REMARK   67  A    between atoms: _161  and  _163
REMARK   68  A    between atoms: _163  and  _164
REMARK   69  A    between atoms: _163  and  _166
REMARK   70  A    between atoms: _166  and  _167
REMARK   71  A    between atoms: _169  and  _171
REMARK   72  A    between atoms: _171  and  _172
REMARK   73  A    between atoms: _171  and  _174
REMARK   74  A    between atoms: _177  and  _179
REMARK   75  A    between atoms: _179  and  _180
REMARK   76  A    between atoms: _179  and  _182
REMARK   77  A    between atoms: _185  and  _187
REMARK   78  A    between atoms: _187  and  _188
REMARK   79  A    between atoms: _187  and  _190
REMARK   80  A    between atoms: _190  and  _191
REMARK   81  A    between atoms: _195  and  _196
REMARK   82  A    between atoms: _201  and  _203
REMARK   83  A    between atoms: _203  and  _204
REMARK   84  A    between atoms: _203  and  _206
REMARK   85  A    between atoms: _206  and  _207
REMARK   86  A    between atoms: _212  and  _213
REMARK   87  A    between atoms: _215  and  _217
REMARK   88  A    between atoms: _217  and  _218
REMARK   89  A    between atoms: _217  and  _220
REMARK   90  A    between atoms: _220  and  _221
REMARK   91  A    between atoms: _221  and  _222
REMARK   92  A    between atoms: _224  and  _226
REMARK   93  A    between atoms: _226  and  _227
REMARK   94  A    between atoms: _226  and  _229
REMARK   95  A    between atoms: _229  and  _230
REMARK   96  A    between atoms: _230  and  _231
REMARK   97  A    between atoms: _231  and  _232
REMARK   98  A    between atoms: _232  and  _233
REMARK   99  A    between atoms: _237  and  _239
REMARK  100  A    between atoms: _239  and  _240
REMARK  101  A    between atoms: _239  and  _242
REMARK  102  A    between atoms: _242  and  _243
REMARK  103  A    between atoms: _248  and  _250
REMARK  104  A    between atoms: _250  and  _251
REMARK  105  A    between atoms: _253  and  _255
REMARK  106  A    between atoms: _255  and  _256
REMARK  107  A    between atoms: _255  and  _258
REMARK  108  A    between atoms: _258  and  _259
REMARK  109  A    between atoms: _262  and  _264
REMARK  110  A    between atoms: _264  and  _265
REMARK  111  A    between atoms: _264  and  _267
REMARK  112  A    between atoms: _267  and  _268
REMARK  113  A    between atoms: _271  and  _273
REMARK  114  A    between atoms: _273  and  _274
REMARK  115  A    between atoms: _273  and  _276
REMARK  116  A    between atoms: _276  and  _277
REMARK  117  A    between atoms: _277  and  _278
REMARK  118  A    between atoms: _278  and  _279
REMARK  119  A    between atoms: _288  and  _290
REMARK  120  A    between atoms: _290  and  _291
REMARK  121  A    between atoms: _290  and  _293
REMARK  122  A    between atoms: _293  and  _294
REMARK  123  A    between atoms: _299  and  _301
REMARK  124  A    between atoms: _301  and  _302
REMARK  125  A    between atoms: _301  and  _304
REMARK  126  A    between atoms: _304  and  _305
REMARK  127  A    between atoms: _311  and  _313
REMARK  128  A    between atoms: _313  and  _314
REMARK  129  A    between atoms: _313  and  _316
REMARK  130  A    between atoms: _316  and  _317
REMARK  131  A    between atoms: _322  and  _324
REMARK  132  A    between atoms: _324  and  _325
REMARK  133  A    between atoms: _324  and  _327
REMARK  134  A    between atoms: _327  and  _328
REMARK  135  A    between atoms: _331  and  _333
REMARK  136  A    between atoms: _333  and  _334
REMARK  137  A    between atoms: _337  and  _339
REMARK  138  A    between atoms: _339  and  _340
REMARK  139  A    between atoms: _343  and  _345
REMARK  140  A    between atoms: _345  and  _346
REMARK  141  A    between atoms: _345  and  _348
REMARK  142  A    between atoms: _348  and  _349
REMARK  143  A    between atoms: _349  and  _350
REMARK  144  A    between atoms: _350  and  _351
REMARK  145  A    between atoms: _360  and  _362
REMARK  146  A    between atoms: _362  and  _363
REMARK  147  A    between atoms: _362  and  _365
REMARK  148  A    between atoms: _365  and  _366
REMARK  149  A    between atoms: _371  and  _373
REMARK  150  A    between atoms: _373  and  _374
REMARK  151  A    between atoms: _373  and  _376
REMARK  152  A    between atoms: _378  and  _380
REMARK  153  A    between atoms: _380  and  _381
REMARK  154  A    between atoms: _380  and  _383
REMARK  155  A    between atoms: _383  and  _384
REMARK  156  A    between atoms: _384  and  _385
REMARK  157  A    between atoms: _387  and  _389
REMARK  158  A    between atoms: _389  and  _390
REMARK  159  A    between atoms: _389  and  _392
REMARK  160  A    between atoms: _392  and  _393
REMARK  161  A    between atoms: _396  and  _398
REMARK  162  A    between atoms: _398  and  _399
REMARK  163  A    between atoms: _398  and  _401
REMARK  164  A    between atoms: _401  and  _402
REMARK  165  A    between atoms: _405  and  _407
REMARK  166  A    between atoms: _407  and  _408
REMARK  167  A    between atoms: _407  and  _410
REMARK  168  A    between atoms: _410  and  _411
REMARK  169  A    between atoms: _411  and  _412
REMARK  170  A    between atoms: _412  and  _413
REMARK  171  A    between atoms: _413  and  _414
REMARK  172  A    between atoms: _418  and  _420
REMARK  173  A    between atoms: _420  and  _421
REMARK  174  A    between atoms: _420  and  _423
REMARK  175  A    between atoms: _426  and  _428
REMARK  176  A    between atoms: _428  and  _429
REMARK  177  A    between atoms: _432  and  _434
REMARK  178  A    between atoms: _434  and  _435
REMARK  179  A    between atoms: _434  and  _437
REMARK  180  A    between atoms: _437  and  _438
REMARK  181  A    between atoms: _441  and  _443
REMARK  182  A    between atoms: _443  and  _444
REMARK  183  A    between atoms: _443  and  _446
REMARK  184  A    between atoms: _446  and  _447
REMARK  185  A    between atoms: _453  and  _455
REMARK  186  A    between atoms: _455  and  _456
REMARK  187  A    between atoms: _455  and  _458
REMARK  188  A    between atoms: _458  and  _459
REMARK  189  A    between atoms: _462  and  _464
REMARK  190  A    between atoms: _464  and  _465
REMARK  191  A    between atoms: _468  and  _470
REMARK  192  A    between atoms: _470  and  _471
REMARK  193  A    between atoms: _470  and  _473
REMARK  194  A    between atoms: _473  and  _474
REMARK  195  A    between atoms: _474  and  _475
REMARK  196  A    between atoms: _475  and  _476
REMARK  197  A    between atoms: _485  and  _487
REMARK  198  A    between atoms: _487  and  _488
REMARK  199  A    between atoms: _487  and  _490
REMARK  200  A    between atoms: _490  and  _491
REMARK  201  A    between atoms: _494  and  _496
REMARK  202  A    between atoms: _496  and  _497
REMARK  203  A    between atoms: _496  and  _499
REMARK  204  A    between atoms: _499  and  _500
REMARK  205  A    between atoms: _500  and  _501
REMARK  206  A    between atoms: _503  and  _505
REMARK  207  A    between atoms: _505  and  _506
REMARK  208  A    between atoms: _505  and  _508
REMARK  209  A    between atoms: _508  and  _509
REMARK  210  A    between atoms: _514  and  _515
REMARK  211  A    between atoms: _517  and  _519
REMARK  212  A    between atoms: _519  and  _520
REMARK  213  A    between atoms: _519  and  _522
REMARK  214  A    between atoms: _522  and  _523
REMARK  215  A    between atoms: _526  and  _528
REMARK  216  A    between atoms: _528  and  _529
REMARK  217  A    between atoms: _528  and  _531
REMARK  218  A    between atoms: _531  and  _532
REMARK  219  A    between atoms: _537  and  _538
REMARK                            x       y       z     vdW  Elec       q    Type
REMARK                         _______ _______ _______ _____ _____    ______ ____
ROOT
ATOM      1  CG  TYR A   1       7.036  78.159   3.199  0.00  0.00    -0.020 A 
ATOM      2  CD2 TYR A   1       6.975  78.077   4.585  0.00  0.00    -0.001 A 
ATOM      3  CE2 TYR A   1       8.123  78.091   5.356  0.00  0.00    +0.036 A 
ATOM      4  CZ  TYR A   1       9.357  78.189   4.744  0.00  0.00    +0.134 A 
ATOM      5  CE1 TYR A   1       9.450  78.279   3.369  0.00  0.00    +0.036 A 
ATOM      6  CD1 TYR A   1       8.288  78.265   2.602  0.00  0.00    -0.001 A 
ENDROOT
BRANCH   4   7
ATOM      7  OH  TYR A   1      10.497  78.177   5.515  0.00  0.00    -0.506 OA
ATOM      8  HH  TYR A   1      10.475  78.939   6.146  0.00  0.00    +0.292 HD
ENDBRANCH   4   7
BRANCH   1   9
ATOM      9  CB  TYR A   1       5.779  78.085   2.363  0.00  0.00    +0.051 C 
BRANCH   9  10
ATOM     10  CA  TYR A   1       5.493  76.670   1.855  0.00  0.00    +0.137 C 
BRANCH  10  11
ATOM     11  N   TYR A   1       6.571  76.229   0.977  0.00  0.00    -0.239 NA
ATOM     12  H   TYR A   1       6.754  76.752   0.097  0.00  0.00    +0.142 HD
ENDBRANCH  10  11
BRANCH  10  13
ATOM     13  C   TYR A   1       4.166  76.633   1.106  0.00  0.00    +0.224 C 
ATOM     14  O   TYR A   1       4.082  77.071  -0.042  0.00  0.00    -0.287 OA
ENDBRANCH  10  13
ENDBRANCH   9  10
ENDBRANCH   1   9
TORSDOF 5
REMARK  Name = ../refined-set-2016/4aoi/4aoi_pocket.pdb
REMARK  219 active torsions:
REMARK  status: ('A' for Active; 'I' for Inactive)
REMARK    1  A    between atoms: _1  and  _3
REMARK    2  A    between atoms: _3  and  _4
REMARK    3  A    between atoms: _3  and  _6
REMARK    4  A    between atoms: _9  and  _11
REMARK    5  A    between atoms: _11  and  _12
REMARK    6  A    between atoms: _11  and  _14
REMARK    7  A    between atoms: _14  and  _15
REMARK    8  A    between atoms: _18  and  _20
REMARK    9  A    between atoms: _20  and  _21
REMARK   10  A    between atoms: _23  and  _25
REMARK   11  A    between atoms: _25  and  _26
REMARK   12  A    between atoms: _25  and  _28
REMARK   13  A    between atoms: _28  and  _29
REMARK   14  A    between atoms: _29  and  _30
REMARK   15  A    between atoms: _30  and  _31
REMARK   16  A    between atoms: _40  and  _42
REMARK   17  A    between atoms: _42  and  _43
REMARK   18  A    between atoms: _45  and  _47
REMARK   19  A    between atoms: _47  and  _48
REMARK   20  A    between atoms: _47  and  _50
REMARK   21  A    between atoms: _52  and  _54
REMARK   22  A    between atoms: _54  and  _55
REMARK   23  A    between atoms: _54  and  _57
REMARK   24  A    between atoms: _60  and  _62
REMARK   25  A    between atoms: _62  and  _63
REMARK   26  A    between atoms: _62  and  _65
REMARK   27  A    between atoms: _65  and  _66
REMARK   28  A    between atoms: _71  and  _72
REMARK   29  A    between atoms: _74  and  _76
REMARK   30  A    between atoms: _76  and  _77
REMARK   31  A    between atoms: _76  and  _79
REMARK   32  A    between atoms: _79  and  _80
REMARK   33  A    between atoms: _85  and  _87
REMARK   34  A    between atoms: _87  and  _88
REMARK   35  A    between atoms: _90  and  _92
REMARK   36  A    between atoms: _92  and  _93
REMARK   37  A    between atoms: _92  and  _95
REMARK   38  A    between atoms: _95  and  _96
REMARK   39  A    between atoms: _101  and  _103
REMARK   40  A    between atoms: _103  and  _104
REMARK   41  A    between atoms: _103  and  _106
REMARK   42  A    between atoms: _108  and  _110
REMARK   43  A    between atoms: _110  and  _111
REMARK   44  A    between atoms: _114  and  _116
REMARK   45  A    between atoms: _116  and  _117
REMARK   46  A    between atoms: _116  and  _119
REMARK   47  A    between atoms: _122  and  _124
REMARK   48  A    between atoms: _124  and  _125
REMARK   49  A    between atoms: _124  and  _127
REMARK   50  A    between atoms: _127  and  _128
REMARK   51  A    between atoms: _128  and  _129
REMARK   52  A    between atoms: _129  and  _130
REMARK   53  A    between atoms: _130  and  _131
REMARK   54  A    between atoms: _135  and  _137
REMARK   55  A    between atoms: _137  and  _138
REMARK   56  A    between atoms: _137  and  _140
REMARK   57  A    between atoms: _140  and  _141
REMARK   58  A    between atoms: _143  and  _145
REMARK   59  A    between atoms: _145  and  _146
REMARK   60  A    between atoms: _145  and  _148
REMARK   61  A    between atoms: _148  and  _149
REMARK   62  A    between atoms: _149  and  _150
REMARK   63  A    between atoms: _152  and  _154
REMARK   64  A    between atoms: _154  and  _155
REMARK   65  A    between atoms: _154  and  _157
REMARK   66  A    between atoms: _157  and  _158
REMARK   67  A    between atoms: _161  and  _163
REMARK   68  A    between atoms: _163  and  _164
REMARK   69  A    between atoms: _163  and  _166
REMARK   70  A    between atoms: _166  and  _167
REMARK   71  A    between atoms: _169  and  _171
REMARK   72  A    between atoms: _171  and  _172
REMARK   73  A    between atoms: _171  and  _174
REMARK   74  A    between atoms: _177  and  _179
REMARK   75  A    between atoms: _179  and  _180
REMARK   76  A    between atoms: _179  and  _182
REMARK   77  A    between atoms: _185  and  _187
REMARK   78  A    between atoms: _187  and  _188
REMARK   79  A    between atoms: _187  and  _190
REMARK   80  A    between atoms: _190  and  _191
REMARK   81  A    between atoms: _195  and  _196
REMARK   82  A    between atoms: _201  and  _203
REMARK   83  A    between atoms: _203  and  _204
REMARK   84  A    between atoms: _203  and  _206
REMARK   85  A    between atoms: _206  and  _207
REMARK   86  A    between atoms: _212  and  _213
REMARK   87  A    between atoms: _215  and  _217
REMARK   88  A    between atoms: _217  and  _218
REMARK   89  A    between atoms: _217  and  _220
REMARK   90  A    between atoms: _220  and  _221
REMARK   91  A    between atoms: _221  and  _222
REMARK   92  A    between atoms: _224  and  _226
REMARK   93  A    between atoms: _226  and  _227
REMARK   94  A    between atoms: _226  and  _229
REMARK   95  A    between atoms: _229  and  _230
REMARK   96  A    between atoms: _230  and  _231
REMARK   97  A    between atoms: _231  and  _232
REMARK   98  A    between atoms: _232  and  _233
REMARK   99  A    between atoms: _237  and  _239
REMARK  100  A    between atoms: _239  and  _240
REMARK  101  A    between atoms: _239  and  _242
REMARK  102  A    between atoms: _242  and  _243
REMARK  103  A    between atoms: _248  and  _250
REMARK  104  A    between atoms: _250  and  _251
REMARK  105  A    between atoms: _253  and  _255
REMARK  106  A    between atoms: _255  and  _256
REMARK  107  A    between atoms: _255  and  _258
REMARK  108  A    between atoms: _258  and  _259
REMARK  109  A    between atoms: _262  and  _264
REMARK  110  A    between atoms: _264  and  _265
REMARK  111  A    between atoms: _264  and  _267
REMARK  112  A    between atoms: _267  and  _268
REMARK  113  A    between atoms: _271  and  _273
REMARK  114  A    between atoms: _273  and  _274
REMARK  115  A    between atoms: _273  and  _276
REMARK  116  A    between atoms: _276  and  _277
REMARK  117  A    between atoms: _277  and  _278
REMARK  118  A    between atoms: _278  and  _279
REMARK  119  A    between atoms: _288  and  _290
REMARK  120  A    between atoms: _290  and  _291
REMARK  121  A    between atoms: _290  and  _293
REMARK  122  A    between atoms: _293  and  _294
REMARK  123  A    between atoms: _299  and  _301
REMARK  124  A    between atoms: _301  and  _302
REMARK  125  A    between atoms: _301  and  _304
REMARK  126  A    between atoms: _304  and  _305
REMARK  127  A    between atoms: _311  and  _313
REMARK  128  A    between atoms: _313  and  _314
REMARK  129  A    between atoms: _313  and  _316
REMARK  130  A    between atoms: _316  and  _317
REMARK  131  A    between atoms: _322  and  _324
REMARK  132  A    between atoms: _324  and  _325
REMARK  133  A    between atoms: _324  and  _327
REMARK  134  A    between atoms: _327  and  _328
REMARK  135  A    between atoms: _331  and  _333
REMARK  136  A    between atoms: _333  and  _334
REMARK  137  A    between atoms: _337  and  _339
REMARK  138  A    between atoms: _339  and  _340
REMARK  139  A    between atoms: _343  and  _345
REMARK  140  A    between atoms: _345  and  _346
REMARK  141  A    between atoms: _345  and  _348
REMARK  142  A    between atoms: _348  and  _349
REMARK  143  A    between atoms: _349  and  _350
REMARK  144  A    between atoms: _350  and  _351
REMARK  145  A    between atoms: _360  and  _362
REMARK  146  A    between atoms: _362  and  _363
REMARK  147  A    between atoms: _362  and  _365
REMARK  148  A    between atoms: _365  and  _366
REMARK  149  A    between atoms: _371  and  _373
REMARK  150  A    between atoms: _373  and  _374
REMARK  151  A    between atoms: _373  and  _376
REMARK  152  A    between atoms: _378  and  _380
REMARK  153  A    between atoms: _380  and  _381
REMARK  154  A    between atoms: _380  and  _383
REMARK  155  A    between atoms: _383  and  _384
REMARK  156  A    between atoms: _384  and  _385
REMARK  157  A    between atoms: _387  and  _389
REMARK  158  A    between atoms: _389  and  _390
REMARK  159  A    between atoms: _389  and  _392
REMARK  160  A    between atoms: _392  and  _393
REMARK  161  A    between atoms: _396  and  _398
REMARK  162  A    between atoms: _398  and  _399
REMARK  163  A    between atoms: _398  and  _401
REMARK  164  A    between atoms: _401  and  _402
REMARK  165  A    between atoms: _405  and  _407
REMARK  166  A    between atoms: _407  and  _408
REMARK  167  A    between atoms: _407  and  _410
REMARK  168  A    between atoms: _410  and  _411
REMARK  169  A    between atoms: _411  and  _412
REMARK  170  A    between atoms: _412  and  _413
REMARK  171  A    between atoms: _413  and  _414
REMARK  172  A    between atoms: _418  and  _420
REMARK  173  A    between atoms: _420  and  _421
REMARK  174  A    between atoms: _420  and  _423
REMARK  175  A    between atoms: _426  and  _428
REMARK  176  A    between atoms: _428  and  _429
REMARK  177  A    between atoms: _432  and  _434
REMARK  178  A    between atoms: _434  and  _435
REMARK  179  A    between atoms: _434  and  _437
REMARK  180  A    between atoms: _437  and  _438
REMARK  181  A    between atoms: _441  and  _443
REMARK  182  A    between atoms: _443  and  _444
REMARK  183  A    between atoms: _443  and  _446
REMARK  184  A    between atoms: _446  and  _447
REMARK  185  A    between atoms: _453  and  _455
REMARK  186  A    between atoms: _455  and  _456
REMARK  187  A    between atoms: _455  and  _458
REMARK  188  A    between atoms: _458  and  _459
REMARK  189  A    between atoms: _462  and  _464
REMARK  190  A    between atoms: _464  and  _465
REMARK  191  A    between atoms: _468  and  _470
REMARK  192  A    between atoms: _470  and  _471
REMARK  193  A    between atoms: _470  and  _473
REMARK  194  A    between atoms: _473  and  _474
REMARK  195  A    between atoms: _474  and  _475
REMARK  196  A    between atoms: _475  and  _476
REMARK  197  A    between atoms: _485  and  _487
REMARK  198  A    between atoms: _487  and  _488
REMARK  199  A    between atoms: _487  and  _490
REMARK  200  A    between atoms: _490  and  _491
REMARK  201  A    between atoms: _494  and  _496
REMARK  202  A    between atoms: _496  and  _497
REMARK  203  A    between atoms: _496  and  _499
REMARK  204  A    between atoms: _499  and  _500
REMARK  205  A    between atoms: _500  and  _501
REMARK  206  A    between atoms: _503  and  _505
REMARK  207  A    between atoms: _505  and  _506
REMARK  208  A    between atoms: _505  and  _508
REMARK  209  A    between atoms: _508  and  _509
REMARK  210  A    between atoms: _514  and  _515
REMARK  211  A    between atoms: _517  and  _519
REMARK  212  A    between atoms: _519  and  _520
REMARK  213  A    between atoms: _519  and  _522
REMARK  214  A    between atoms: _522  and  _523
REMARK  215  A    between atoms: _526  and  _528
REMARK  216  A    between atoms: _528  and  _529
REMARK  217  A    between atoms: _528  and  _531
REMARK  218  A    between atoms: _531  and  _532
REMARK  219  A    between atoms: _537  and  _538
REMARK                            x       y       z     vdW  Elec       q    Type
REMARK                         _______ _______ _______ _____ _____    ______ ____
ROOT
ATOM      1  O   HOH     1      25.816  84.188   1.049  0.00  0.00    +0.000 OA
ENDROOT
TORSDOF 0
REMARK  Name = ../refined-set-2016/4aoi/4aoi_pocket.pdb
REMARK  219 active torsions:
REMARK  status: ('A' for Active; 'I' for Inactive)
REMARK    1  A    between atoms: _1  and  _3
REMARK    2  A    between atoms: _3  and  _4
REMARK    3  A    between atoms: _3  and  _6
REMARK    4  A    between atoms: _9  and  _11
REMARK    5  A    between atoms: _11  and  _12
REMARK    6  A    between atoms: _11  and  _14
REMARK    7  A    between atoms: _14  and  _15
REMARK    8  A    between atoms: _18  and  _20
REMARK    9  A    between atoms: _20  and  _21
REMARK   10  A    between atoms: _23  and  _25
REMARK   11  A    between atoms: _25  and  _26
REMARK   12  A    between atoms: _25  and  _28
REMARK   13  A    between atoms: _28  and  _29
REMARK   14  A    between atoms: _29  and  _30
REMARK   15  A    between atoms: _30  and  _31
REMARK   16  A    between atoms: _40  and  _42
REMARK   17  A    between atoms: _42  and  _43
REMARK   18  A    between atoms: _45  and  _47
REMARK   19  A    between atoms: _47  and  _48
REMARK   20  A    between atoms: _47  and  _50
REMARK   21  A    between atoms: _52  and  _54
REMARK   22  A    between atoms: _54  and  _55
REMARK   23  A    between atoms: _54  and  _57
REMARK   24  A    between atoms: _60  and  _62
REMARK   25  A    between atoms: _62  and  _63
REMARK   26  A    between atoms: _62  and  _65
REMARK   27  A    between atoms: _65  and  _66
REMARK   28  A    between atoms: _71  and  _72
REMARK   29  A    between atoms: _74  and  _76
REMARK   30  A    between atoms: _76  and  _77
REMARK   31  A    between atoms: _76  and  _79
REMARK   32  A    between atoms: _79  and  _80
REMARK   33  A    between atoms: _85  and  _87
REMARK   34  A    between atoms: _87  and  _88
REMARK   35  A    between atoms: _90  and  _92
REMARK   36  A    between atoms: _92  and  _93
REMARK   37  A    between atoms: _92  and  _95
REMARK   38  A    between atoms: _95  and  _96
REMARK   39  A    between atoms: _101  and  _103
REMARK   40  A    between atoms: _103  and  _104
REMARK   41  A    between atoms: _103  and  _106
REMARK   42  A    between atoms: _108  and  _110
REMARK   43  A    between atoms: _110  and  _111
REMARK   44  A    between atoms: _114  and  _116
REMARK   45  A    between atoms: _116  and  _117
REMARK   46  A    between atoms: _116  and  _119
REMARK   47  A    between atoms: _122  and  _124
REMARK   48  A    between atoms: _124  and  _125
REMARK   49  A    between atoms: _124  and  _127
REMARK   50  A    between atoms: _127  and  _128
REMARK   51  A    between atoms: _128  and  _129
REMARK   52  A    between atoms: _129  and  _130
REMARK   53  A    between atoms: _130  and  _131
REMARK   54  A    between atoms: _135  and  _137
REMARK   55  A    between atoms: _137  and  _138
REMARK   56  A    between atoms: _137  and  _140
REMARK   57  A    between atoms: _140  and  _141
REMARK   58  A    between atoms: _143  and  _145
REMARK   59  A    between atoms: _145  and  _146
REMARK   60  A    between atoms: _145  and  _148
REMARK   61  A    between atoms: _148  and  _149
REMARK   62  A    between atoms: _149  and  _150
REMARK   63  A    between atoms: _152  and  _154
REMARK   64  A    between atoms: _154  and  _155
REMARK   65  A    between atoms: _154  and  _157
REMARK   66  A    between atoms: _157  and  _158
REMARK   67  A    between atoms: _161  and  _163
REMARK   68  A    between atoms: _163  and  _164
REMARK   69  A    between atoms: _163  and  _166
REMARK   70  A    between atoms: _166  and  _167
REMARK   71  A    between atoms: _169  and  _171
REMARK   72  A    between atoms: _171  and  _172
REMARK   73  A    between atoms: _171  and  _174
REMARK   74  A    between atoms: _177  and  _179
REMARK   75  A    between atoms: _179  and  _180
REMARK   76  A    between atoms: _179  and  _182
REMARK   77  A    between atoms: _185  and  _187
REMARK   78  A    between atoms: _187  and  _188
REMARK   79  A    between atoms: _187  and  _190
REMARK   80  A    between atoms: _190  and  _191
REMARK   81  A    between atoms: _195  and  _196
REMARK   82  A    between atoms: _201  and  _203
REMARK   83  A    between atoms: _203  and  _204
REMARK   84  A    between atoms: _203  and  _206
REMARK   85  A    between atoms: _206  and  _207
REMARK   86  A    between atoms: _212  and  _213
REMARK   87  A    between atoms: _215  and  _217
REMARK   88  A    between atoms: _217  and  _218
REMARK   89  A    between atoms: _217  and  _220
REMARK   90  A    between atoms: _220  and  _221
REMARK   91  A    between atoms: _221  and  _222
REMARK   92  A    between atoms: _224  and  _226
REMARK   93  A    between atoms: _226  and  _227
REMARK   94  A    between atoms: _226  and  _229
REMARK   95  A    between atoms: _229  and  _230
REMARK   96  A    between atoms: _230  and  _231
REMARK   97  A    between atoms: _231  and  _232
REMARK   98  A    between atoms: _232  and  _233
REMARK   99  A    between atoms: _237  and  _239
REMARK  100  A    between atoms: _239  and  _240
REMARK  101  A    between atoms: _239  and  _242
REMARK  102  A    between atoms: _242  and  _243
REMARK  103  A    between atoms: _248  and  _250
REMARK  104  A    between atoms: _250  and  _251
REMARK  105  A    between atoms: _253  and  _255
REMARK  106  A    between atoms: _255  and  _256
REMARK  107  A    between atoms: _255  and  _258
REMARK  108  A    between atoms: _258  and  _259
REMARK  109  A    between atoms: _262  and  _264
REMARK  110  A    between atoms: _264  and  _265
REMARK  111  A    between atoms: _264  and  _267
REMARK  112  A    between atoms: _267  and  _268
REMARK  113  A    between atoms: _271  and  _273
REMARK  114  A    between atoms: _273  and  _274
REMARK  115  A    between atoms: _273  and  _276
REMARK  116  A    between atoms: _276  and  _277
REMARK  117  A    between atoms: _277  and  _278
REMARK  118  A    between atoms: _278  and  _279
REMARK  119  A    between atoms: _288  and  _290
REMARK  120  A    between atoms: _290  and  _291
REMARK  121  A    between atoms: _290  and  _293
REMARK  122  A    between atoms: _293  and  _294
REMARK  123  A    between atoms: _299  and  _301
REMARK  124  A    between atoms: _301  and  _302
REMARK  125  A    between atoms: _301  and  _304
REMARK  126  A    between atoms: _304  and  _305
REMARK  127  A    between atoms: _311  and  _313
REMARK  128  A    between atoms: _313  and  _314
REMARK  129  A    between atoms: _313  and  _316
REMARK  130  A    between atoms: _316  and  _317
REMARK  131  A    between atoms: _322  and  _324
REMARK  132  A    between atoms: _324  and  _325
REMARK  133  A    between atoms: _324  and  _327
REMARK  134  A    between atoms: _327  and  _328
REMARK  135  A    between atoms: _331  and  _333
REMARK  136  A    between atoms: _333  and  _334
REMARK  137  A    between atoms: _337  and  _339
REMARK  138  A    between atoms: _339  and  _340
REMARK  139  A    between atoms: _343  and  _345
REMARK  140  A    between atoms: _345  and  _346
REMARK  141  A    between atoms: _345  and  _348
REMARK  142  A    between atoms: _348  and  _349
REMARK  143  A    between atoms: _349  and  _350
REMARK  144  A    between atoms: _350  and  _351
REMARK  145  A    between atoms: _360  and  _362
REMARK  146  A    between atoms: _362  and  _363
REMARK  147  A    between atoms: _362  and  _365
REMARK  148  A    between atoms: _365  and  _366
REMARK  149  A    between atoms: _371  and  _373
REMARK  150  A    between atoms: _373  and  _374
REMARK  151  A    between atoms: _373  and  _376
REMARK  152  A    between atoms: _378  and  _380
REMARK  153  A    between atoms: _380  and  _381
REMARK  154  A    between atoms: _380  and  _383
REMARK  155  A    between atoms: _383  and  _384
REMARK  156  A    between atoms: _384  and  _385
REMARK  157  A    between atoms: _387  and  _389
REMARK  158  A    between atoms: _389  and  _390
REMARK  159  A    between atoms: _389  and  _392
REMARK  160  A    between atoms: _392  and  _393
REMARK  161  A    between atoms: _396  and  _398
REMARK  162  A    between atoms: _398  and  _399
REMARK  163  A    between atoms: _398  and  _401
REMARK  164  A    between atoms: _401  and  _402
REMARK  165  A    between atoms: _405  and  _407
REMARK  166  A    between atoms: _407  and  _408
REMARK  167  A    between atoms: _407  and  _410
REMARK  168  A    between atoms: _410  and  _411
REMARK  169  A    between atoms: _411  and  _412
REMARK  170  A    between atoms: _412  and  _413
REMARK  171  A    between atoms: _413  and  _414
REMARK  172  A    between atoms: _418  and  _420
REMARK  173  A    between atoms: _420  and  _421
REMARK  174  A    between atoms: _420  and  _423
REMARK  175  A    between atoms: _426  and  _428
REMARK  176  A    between atoms: _428  and  _429
REMARK  177  A    between atoms: _432  and  _434
REMARK  178  A    between atoms: _434  and  _435
REMARK  179  A    between atoms: _434  and  _437
REMARK  180  A    between atoms: _437  and  _438
REMARK  181  A    between atoms: _441  and  _443
REMARK  182  A    between atoms: _443  and  _444
REMARK  183  A    between atoms: _443  and  _446
REMARK  184  A    between atoms: _446  and  _447
REMARK  185  A    between atoms: _453  and  _455
REMARK  186  A    between atoms: _455  and  _456
REMARK  187  A    between atoms: _455  and  _458
REMARK  188  A    between atoms: _458  and  _459
REMARK  189  A    between atoms: _462  and  _464
REMARK  190  A    between atoms: _464  and  _465
REMARK  191  A    between atoms: _468  and  _470
REMARK  192  A    between atoms: _470  and  _471
REMARK  193  A    between atoms: _470  and  _473
REMARK  194  A    between atoms: _473  and  _474
REMARK  195  A    between atoms: _474  and  _475
REMARK  196  A    between atoms: _475  and  _476
REMARK  197  A    between atoms: _485  and  _487
REMARK  198  A    between atoms: _487  and  _488
REMARK  199  A    between atoms: _487  and  _490
REMARK  200  A    between atoms: _490  and  _491
REMARK  201  A    between atoms: _494  and  _496
REMARK  202  A    between atoms: _496  and  _497
REMARK  203  A    between atoms: _496  and  _499
REMARK  204  A    between atoms: _499  and  _500
REMARK  205  A    between atoms: _500  and  _501
REMARK  206  A    between atoms: _503  and  _505
REMARK  207  A    between atoms: _505  and  _506
REMARK  208  A    between atoms: _505  and  _508
REMARK  209  A    between atoms: _508  and  _509
REMARK  210  A    between atoms: _514  and  _515
REMARK  211  A    between atoms: _517  and  _519
REMARK  212  A    between atoms: _519  and  _520
REMARK  213  A    between atoms: _519  and  _522
REMARK  214  A    between atoms: _522  and  _523
REMARK  215  A    between atoms: _526  and  _528
REMARK  216  A    between atoms: _528  and  _529
REMARK  217  A    between atoms: _528  and  _531
REMARK  218  A    between atoms: _531  and  _532
REMARK  219  A    between atoms: _537  and  _538
REMARK                            x       y       z     vdW  Elec       q    Type
REMARK                         _______ _______ _______ _____ _____    ______ ____
ROOT
ATOM      1  O   HOH     1      16.963  83.025  -3.221  0.00  0.00    +0.000 OA
ENDROOT
TORSDOF 0
REMARK  Name = ../refined-set-2016/4aoi/4aoi_pocket.pdb
REMARK  219 active torsions:
REMARK  status: ('A' for Active; 'I' for Inactive)
REMARK    1  A    between atoms: _1  and  _3
REMARK    2  A    between atoms: _3  and  _4
REMARK    3  A    between atoms: _3  and  _6
REMARK    4  A    between atoms: _9  and  _11
REMARK    5  A    between atoms: _11  and  _12
REMARK    6  A    between atoms: _11  and  _14
REMARK    7  A    between atoms: _14  and  _15
REMARK    8  A    between atoms: _18  and  _20
REMARK    9  A    between atoms: _20  and  _21
REMARK   10  A    between atoms: _23  and  _25
REMARK   11  A    between atoms: _25  and  _26
REMARK   12  A    between atoms: _25  and  _28
REMARK   13  A    between atoms: _28  and  _29
REMARK   14  A    between atoms: _29  and  _30
REMARK   15  A    between atoms: _30  and  _31
REMARK   16  A    between atoms: _40  and  _42
REMARK   17  A    between atoms: _42  and  _43
REMARK   18  A    between atoms: _45  and  _47
REMARK   19  A    between atoms: _47  and  _48
REMARK   20  A    between atoms: _47  and  _50
REMARK   21  A    between atoms: _52  and  _54
REMARK   22  A    between atoms: _54  and  _55
REMARK   23  A    between atoms: _54  and  _57
REMARK   24  A    between atoms: _60  and  _62
REMARK   25  A    between atoms: _62  and  _63
REMARK   26  A    between atoms: _62  and  _65
REMARK   27  A    between atoms: _65  and  _66
REMARK   28  A    between atoms: _71  and  _72
REMARK   29  A    between atoms: _74  and  _76
REMARK   30  A    between atoms: _76  and  _77
REMARK   31  A    between atoms: _76  and  _79
REMARK   32  A    between atoms: _79  and  _80
REMARK   33  A    between atoms: _85  and  _87
REMARK   34  A    between atoms: _87  and  _88
REMARK   35  A    between atoms: _90  and  _92
REMARK   36  A    between atoms: _92  and  _93
REMARK   37  A    between atoms: _92  and  _95
REMARK   38  A    between atoms: _95  and  _96
REMARK   39  A    between atoms: _101  and  _103
REMARK   40  A    between atoms: _103  and  _104
REMARK   41  A    between atoms: _103  and  _106
REMARK   42  A    between atoms: _108  and  _110
REMARK   43  A    between atoms: _110  and  _111
REMARK   44  A    between atoms: _114  and  _116
REMARK   45  A    between atoms: _116  and  _117
REMARK   46  A    between atoms: _116  and  _119
REMARK   47  A    between atoms: _122  and  _124
REMARK   48  A    between atoms: _124  and  _125
REMARK   49  A    between atoms: _124  and  _127
REMARK   50  A    between atoms: _127  and  _128
REMARK   51  A    between atoms: _128  and  _129
REMARK   52  A    between atoms: _129  and  _130
REMARK   53  A    between atoms: _130  and  _131
REMARK   54  A    between atoms: _135  and  _137
REMARK   55  A    between atoms: _137  and  _138
REMARK   56  A    between atoms: _137  and  _140
REMARK   57  A    between atoms: _140  and  _141
REMARK   58  A    between atoms: _143  and  _145
REMARK   59  A    between atoms: _145  and  _146
REMARK   60  A    between atoms: _145  and  _148
REMARK   61  A    between atoms: _148  and  _149
REMARK   62  A    between atoms: _149  and  _150
REMARK   63  A    between atoms: _152  and  _154
REMARK   64  A    between atoms: _154  and  _155
REMARK   65  A    between atoms: _154  and  _157
REMARK   66  A    between atoms: _157  and  _158
REMARK   67  A    between atoms: _161  and  _163
REMARK   68  A    between atoms: _163  and  _164
REMARK   69  A    between atoms: _163  and  _166
REMARK   70  A    between atoms: _166  and  _167
REMARK   71  A    between atoms: _169  and  _171
REMARK   72  A    between atoms: _171  and  _172
REMARK   73  A    between atoms: _171  and  _174
REMARK   74  A    between atoms: _177  and  _179
REMARK   75  A    between atoms: _179  and  _180
REMARK   76  A    between atoms: _179  and  _182
REMARK   77  A    between atoms: _185  and  _187
REMARK   78  A    between atoms: _187  and  _188
REMARK   79  A    between atoms: _187  and  _190
REMARK   80  A    between atoms: _190  and  _191
REMARK   81  A    between atoms: _195  and  _196
REMARK   82  A    between atoms: _201  and  _203
REMARK   83  A    between atoms: _203  and  _204
REMARK   84  A    between atoms: _203  and  _206
REMARK   85  A    between atoms: _206  and  _207
REMARK   86  A    between atoms: _212  and  _213
REMARK   87  A    between atoms: _215  and  _217
REMARK   88  A    between atoms: _217  and  _218
REMARK   89  A    between atoms: _217  and  _220
REMARK   90  A    between atoms: _220  and  _221
REMARK   91  A    between atoms: _221  and  _222
REMARK   92  A    between atoms: _224  and  _226
REMARK   93  A    between atoms: _226  and  _227
REMARK   94  A    between atoms: _226  and  _229
REMARK   95  A    between atoms: _229  and  _230
REMARK   96  A    between atoms: _230  and  _231
REMARK   97  A    between atoms: _231  and  _232
REMARK   98  A    between atoms: _232  and  _233
REMARK   99  A    between atoms: _237  and  _239
REMARK  100  A    between atoms: _239  and  _240
REMARK  101  A    between atoms: _239  and  _242
REMARK  102  A    between atoms: _242  and  _243
REMARK  103  A    between atoms: _248  and  _250
REMARK  104  A    between atoms: _250  and  _251
REMARK  105  A    between atoms: _253  and  _255
REMARK  106  A    between atoms: _255  and  _256
REMARK  107  A    between atoms: _255  and  _258
REMARK  108  A    between atoms: _258  and  _259
REMARK  109  A    between atoms: _262  and  _264
REMARK  110  A    between atoms: _264  and  _265
REMARK  111  A    between atoms: _264  and  _267
REMARK  112  A    between atoms: _267  and  _268
REMARK  113  A    between atoms: _271  and  _273
REMARK  114  A    between atoms: _273  and  _274
REMARK  115  A    between atoms: _273  and  _276
REMARK  116  A    between atoms: _276  and  _277
REMARK  117  A    between atoms: _277  and  _278
REMARK  118  A    between atoms: _278  and  _279
REMARK  119  A    between atoms: _288  and  _290
REMARK  120  A    between atoms: _290  and  _291
REMARK  121  A    between atoms: _290  and  _293
REMARK  122  A    between atoms: _293  and  _294
REMARK  123  A    between atoms: _299  and  _301
REMARK  124  A    between atoms: _301  and  _302
REMARK  125  A    between atoms: _301  and  _304
REMARK  126  A    between atoms: _304  and  _305
REMARK  127  A    between atoms: _311  and  _313
REMARK  128  A    between atoms: _313  and  _314
REMARK  129  A    between atoms: _313  and  _316
REMARK  130  A    between atoms: _316  and  _317
REMARK  131  A    between atoms: _322  and  _324
REMARK  132  A    between atoms: _324  and  _325
REMARK  133  A    between atoms: _324  and  _327
REMARK  134  A    between atoms: _327  and  _328
REMARK  135  A    between atoms: _331  and  _333
REMARK  136  A    between atoms: _333  and  _334
REMARK  137  A    between atoms: _337  and  _339
REMARK  138  A    between atoms: _339  and  _340
REMARK  139  A    between atoms: _343  and  _345
REMARK  140  A    between atoms: _345  and  _346
REMARK  141  A    between atoms: _345  and  _348
REMARK  142  A    between atoms: _348  and  _349
REMARK  143  A    between atoms: _349  and  _350
REMARK  144  A    between atoms: _350  and  _351
REMARK  145  A    between atoms: _360  and  _362
REMARK  146  A    between atoms: _362  and  _363
REMARK  147  A    between atoms: _362  and  _365
REMARK  148  A    between atoms: _365  and  _366
REMARK  149  A    between atoms: _371  and  _373
REMARK  150  A    between atoms: _373  and  _374
REMARK  151  A    between atoms: _373  and  _376
REMARK  152  A    between atoms: _378  and  _380
REMARK  153  A    between atoms: _380  and  _381
REMARK  154  A    between atoms: _380  and  _383
REMARK  155  A    between atoms: _383  and  _384
REMARK  156  A    between atoms: _384  and  _385
REMARK  157  A    between atoms: _387  and  _389
REMARK  158  A    between atoms: _389  and  _390
REMARK  159  A    between atoms: _389  and  _392
REMARK  160  A    between atoms: _392  and  _393
REMARK  161  A    between atoms: _396  and  _398
REMARK  162  A    between atoms: _398  and  _399
REMARK  163  A    between atoms: _398  and  _401
REMARK  164  A    between atoms: _401  and  _402
REMARK  165  A    between atoms: _405  and  _407
REMARK  166  A    between atoms: _407  and  _408
REMARK  167  A    between atoms: _407  and  _410
REMARK  168  A    between atoms: _410  and  _411
REMARK  169  A    between atoms: _411  and  _412
REMARK  170  A    between atoms: _412  and  _413
REMARK  171  A    between atoms: _413  and  _414
REMARK  172  A    between atoms: _418  and  _420
REMARK  173  A    between atoms: _420  and  _421
REMARK  174  A    between atoms: _420  and  _423
REMARK  175  A    between atoms: _426  and  _428
REMARK  176  A    between atoms: _428  and  _429
REMARK  177  A    between atoms: _432  and  _434
REMARK  178  A    between atoms: _434  and  _435
REMARK  179  A    between atoms: _434  and  _437
REMARK  180  A    between atoms: _437  and  _438
REMARK  181  A    between atoms: _441  and  _443
REMARK  182  A    between atoms: _443  and  _444
REMARK  183  A    between atoms: _443  and  _446
REMARK  184  A    between atoms: _446  and  _447
REMARK  185  A    between atoms: _453  and  _455
REMARK  186  A    between atoms: _455  and  _456
REMARK  187  A    between atoms: _455  and  _458
REMARK  188  A    between atoms: _458  and  _459
REMARK  189  A    between atoms: _462  and  _464
REMARK  190  A    between atoms: _464  and  _465
REMARK  191  A    between atoms: _468  and  _470
REMARK  192  A    between atoms: _470  and  _471
REMARK  193  A    between atoms: _470  and  _473
REMARK  194  A    between atoms: _473  and  _474
REMARK  195  A    between atoms: _474  and  _475
REMARK  196  A    between atoms: _475  and  _476
REMARK  197  A    between atoms: _485  and  _487
REMARK  198  A    between atoms: _487  and  _488
REMARK  199  A    between atoms: _487  and  _490
REMARK  200  A    between atoms: _490  and  _491
REMARK  201  A    between atoms: _494  and  _496
REMARK  202  A    between atoms: _496  and  _497
REMARK  203  A    between atoms: _496  and  _499
REMARK  204  A    between atoms: _499  and  _500
REMARK  205  A    between atoms: _500  and  _501
REMARK  206  A    between atoms: _503  and  _505
REMARK  207  A    between atoms: _505  and  _506
REMARK  208  A    between atoms: _505  and  _508
REMARK  209  A    between atoms: _508  and  _509
REMARK  210  A    between atoms: _514  and  _515
REMARK  211  A    between atoms: _517  and  _519
REMARK  212  A    between atoms: _519  and  _520
REMARK  213  A    between atoms: _519  and  _522
REMARK  214  A    between atoms: _522  and  _523
REMARK  215  A    between atoms: _526  and  _528
REMARK  216  A    between atoms: _528  and  _529
REMARK  217  A    between atoms: _528  and  _531
REMARK  218  A    between atoms: _531  and  _532
REMARK  219  A    between atoms: _537  and  _538
REMARK                            x       y       z     vdW  Elec       q    Type
REMARK                         _______ _______ _______ _____ _____    ______ ____
ROOT
ATOM      1  O   HOH     1      24.450  79.482  -0.986  0.00  0.00    +0.000 OA
ENDROOT
TORSDOF 0
REMARK  Name = ../refined-set-2016/4aoi/4aoi_pocket.pdb
REMARK  219 active torsions:
REMARK  status: ('A' for Active; 'I' for Inactive)
REMARK    1  A    between atoms: _1  and  _3
REMARK    2  A    between atoms: _3  and  _4
REMARK    3  A    between atoms: _3  and  _6
REMARK    4  A    between atoms: _9  and  _11
REMARK    5  A    between atoms: _11  and  _12
REMARK    6  A    between atoms: _11  and  _14
REMARK    7  A    between atoms: _14  and  _15
REMARK    8  A    between atoms: _18  and  _20
REMARK    9  A    between atoms: _20  and  _21
REMARK   10  A    between atoms: _23  and  _25
REMARK   11  A    between atoms: _25  and  _26
REMARK   12  A    between atoms: _25  and  _28
REMARK   13  A    between atoms: _28  and  _29
REMARK   14  A    between atoms: _29  and  _30
REMARK   15  A    between atoms: _30  and  _31
REMARK   16  A    between atoms: _40  and  _42
REMARK   17  A    between atoms: _42  and  _43
REMARK   18  A    between atoms: _45  and  _47
REMARK   19  A    between atoms: _47  and  _48
REMARK   20  A    between atoms: _47  and  _50
REMARK   21  A    between atoms: _52  and  _54
REMARK   22  A    between atoms: _54  and  _55
REMARK   23  A    between atoms: _54  and  _57
REMARK   24  A    between atoms: _60  and  _62
REMARK   25  A    between atoms: _62  and  _63
REMARK   26  A    between atoms: _62  and  _65
REMARK   27  A    between atoms: _65  and  _66
REMARK   28  A    between atoms: _71  and  _72
REMARK   29  A    between atoms: _74  and  _76
REMARK   30  A    between atoms: _76  and  _77
REMARK   31  A    between atoms: _76  and  _79
REMARK   32  A    between atoms: _79  and  _80
REMARK   33  A    between atoms: _85  and  _87
REMARK   34  A    between atoms: _87  and  _88
REMARK   35  A    between atoms: _90  and  _92
REMARK   36  A    between atoms: _92  and  _93
REMARK   37  A    between atoms: _92  and  _95
REMARK   38  A    between atoms: _95  and  _96
REMARK   39  A    between atoms: _101  and  _103
REMARK   40  A    between atoms: _103  and  _104
REMARK   41  A    between atoms: _103  and  _106
REMARK   42  A    between atoms: _108  and  _110
REMARK   43  A    between atoms: _110  and  _111
REMARK   44  A    between atoms: _114  and  _116
REMARK   45  A    between atoms: _116  and  _117
REMARK   46  A    between atoms: _116  and  _119
REMARK   47  A    between atoms: _122  and  _124
REMARK   48  A    between atoms: _124  and  _125
REMARK   49  A    between atoms: _124  and  _127
REMARK   50  A    between atoms: _127  and  _128
REMARK   51  A    between atoms: _128  and  _129
REMARK   52  A    between atoms: _129  and  _130
REMARK   53  A    between atoms: _130  and  _131
REMARK   54  A    between atoms: _135  and  _137
REMARK   55  A    between atoms: _137  and  _138
REMARK   56  A    between atoms: _137  and  _140
REMARK   57  A    between atoms: _140  and  _141
REMARK   58  A    between atoms: _143  and  _145
REMARK   59  A    between atoms: _145  and  _146
REMARK   60  A    between atoms: _145  and  _148
REMARK   61  A    between atoms: _148  and  _149
REMARK   62  A    between atoms: _149  and  _150
REMARK   63  A    between atoms: _152  and  _154
REMARK   64  A    between atoms: _154  and  _155
REMARK   65  A    between atoms: _154  and  _157
REMARK   66  A    between atoms: _157  and  _158
REMARK   67  A    between atoms: _161  and  _163
REMARK   68  A    between atoms: _163  and  _164
REMARK   69  A    between atoms: _163  and  _166
REMARK   70  A    between atoms: _166  and  _167
REMARK   71  A    between atoms: _169  and  _171
REMARK   72  A    between atoms: _171  and  _172
REMARK   73  A    between atoms: _171  and  _174
REMARK   74  A    between atoms: _177  and  _179
REMARK   75  A    between atoms: _179  and  _180
REMARK   76  A    between atoms: _179  and  _182
REMARK   77  A    between atoms: _185  and  _187
REMARK   78  A    between atoms: _187  and  _188
REMARK   79  A    between atoms: _187  and  _190
REMARK   80  A    between atoms: _190  and  _191
REMARK   81  A    between atoms: _195  and  _196
REMARK   82  A    between atoms: _201  and  _203
REMARK   83  A    between atoms: _203  and  _204
REMARK   84  A    between atoms: _203  and  _206
REMARK   85  A    between atoms: _206  and  _207
REMARK   86  A    between atoms: _212  and  _213
REMARK   87  A    between atoms: _215  and  _217
REMARK   88  A    between atoms: _217  and  _218
REMARK   89  A    between atoms: _217  and  _220
REMARK   90  A    between atoms: _220  and  _221
REMARK   91  A    between atoms: _221  and  _222
REMARK   92  A    between atoms: _224  and  _226
REMARK   93  A    between atoms: _226  and  _227
REMARK   94  A    between atoms: _226  and  _229
REMARK   95  A    between atoms: _229  and  _230
REMARK   96  A    between atoms: _230  and  _231
REMARK   97  A    between atoms: _231  and  _232
REMARK   98  A    between atoms: _232  and  _233
REMARK   99  A    between atoms: _237  and  _239
REMARK  100  A    between atoms: _239  and  _240
REMARK  101  A    between atoms: _239  and  _242
REMARK  102  A    between atoms: _242  and  _243
REMARK  103  A    between atoms: _248  and  _250
REMARK  104  A    between atoms: _250  and  _251
REMARK  105  A    between atoms: _253  and  _255
REMARK  106  A    between atoms: _255  and  _256
REMARK  107  A    between atoms: _255  and  _258
REMARK  108  A    between atoms: _258  and  _259
REMARK  109  A    between atoms: _262  and  _264
REMARK  110  A    between atoms: _264  and  _265
REMARK  111  A    between atoms: _264  and  _267
REMARK  112  A    between atoms: _267  and  _268
REMARK  113  A    between atoms: _271  and  _273
REMARK  114  A    between atoms: _273  and  _274
REMARK  115  A    between atoms: _273  and  _276
REMARK  116  A    between atoms: _276  and  _277
REMARK  117  A    between atoms: _277  and  _278
REMARK  118  A    between atoms: _278  and  _279
REMARK  119  A    between atoms: _288  and  _290
REMARK  120  A    between atoms: _290  and  _291
REMARK  121  A    between atoms: _290  and  _293
REMARK  122  A    between atoms: _293  and  _294
REMARK  123  A    between atoms: _299  and  _301
REMARK  124  A    between atoms: _301  and  _302
REMARK  125  A    between atoms: _301  and  _304
REMARK  126  A    between atoms: _304  and  _305
REMARK  127  A    between atoms: _311  and  _313
REMARK  128  A    between atoms: _313  and  _314
REMARK  129  A    between atoms: _313  and  _316
REMARK  130  A    between atoms: _316  and  _317
REMARK  131  A    between atoms: _322  and  _324
REMARK  132  A    between atoms: _324  and  _325
REMARK  133  A    between atoms: _324  and  _327
REMARK  134  A    between atoms: _327  and  _328
REMARK  135  A    between atoms: _331  and  _333
REMARK  136  A    between atoms: _333  and  _334
REMARK  137  A    between atoms: _337  and  _339
REMARK  138  A    between atoms: _339  and  _340
REMARK  139  A    between atoms: _343  and  _345
REMARK  140  A    between atoms: _345  and  _346
REMARK  141  A    between atoms: _345  and  _348
REMARK  142  A    between atoms: _348  and  _349
REMARK  143  A    between atoms: _349  and  _350
REMARK  144  A    between atoms: _350  and  _351
REMARK  145  A    between atoms: _360  and  _362
REMARK  146  A    between atoms: _362  and  _363
REMARK  147  A    between atoms: _362  and  _365
REMARK  148  A    between atoms: _365  and  _366
REMARK  149  A    between atoms: _371  and  _373
REMARK  150  A    between atoms: _373  and  _374
REMARK  151  A    between atoms: _373  and  _376
REMARK  152  A    between atoms: _378  and  _380
REMARK  153  A    between atoms: _380  and  _381
REMARK  154  A    between atoms: _380  and  _383
REMARK  155  A    between atoms: _383  and  _384
REMARK  156  A    between atoms: _384  and  _385
REMARK  157  A    between atoms: _387  and  _389
REMARK  158  A    between atoms: _389  and  _390
REMARK  159  A    between atoms: _389  and  _392
REMARK  160  A    between atoms: _392  and  _393
REMARK  161  A    between atoms: _396  and  _398
REMARK  162  A    between atoms: _398  and  _399
REMARK  163  A    between atoms: _398  and  _401
REMARK  164  A    between atoms: _401  and  _402
REMARK  165  A    between atoms: _405  and  _407
REMARK  166  A    between atoms: _407  and  _408
REMARK  167  A    between atoms: _407  and  _410
REMARK  168  A    between atoms: _410  and  _411
REMARK  169  A    between atoms: _411  and  _412
REMARK  170  A    between atoms: _412  and  _413
REMARK  171  A    between atoms: _413  and  _414
REMARK  172  A    between atoms: _418  and  _420
REMARK  173  A    between atoms: _420  and  _421
REMARK  174  A    between atoms: _420  and  _423
REMARK  175  A    between atoms: _426  and  _428
REMARK  176  A    between atoms: _428  and  _429
REMARK  177  A    between atoms: _432  and  _434
REMARK  178  A    between atoms: _434  and  _435
REMARK  179  A    between atoms: _434  and  _437
REMARK  180  A    between atoms: _437  and  _438
REMARK  181  A    between atoms: _441  and  _443
REMARK  182  A    between atoms: _443  and  _444
REMARK  183  A    between atoms: _443  and  _446
REMARK  184  A    between atoms: _446  and  _447
REMARK  185  A    between atoms: _453  and  _455
REMARK  186  A    between atoms: _455  and  _456
REMARK  187  A    between atoms: _455  and  _458
REMARK  188  A    between atoms: _458  and  _459
REMARK  189  A    between atoms: _462  and  _464
REMARK  190  A    between atoms: _464  and  _465
REMARK  191  A    between atoms: _468  and  _470
REMARK  192  A    between atoms: _470  and  _471
REMARK  193  A    between atoms: _470  and  _473
REMARK  194  A    between atoms: _473  and  _474
REMARK  195  A    between atoms: _474  and  _475
REMARK  196  A    between atoms: _475  and  _476
REMARK  197  A    between atoms: _485  and  _487
REMARK  198  A    between atoms: _487  and  _488
REMARK  199  A    between atoms: _487  and  _490
REMARK  200  A    between atoms: _490  and  _491
REMARK  201  A    between atoms: _494  and  _496
REMARK  202  A    between atoms: _496  and  _497
REMARK  203  A    between atoms: _496  and  _499
REMARK  204  A    between atoms: _499  and  _500
REMARK  205  A    between atoms: _500  and  _501
REMARK  206  A    between atoms: _503  and  _505
REMARK  207  A    between atoms: _505  and  _506
REMARK  208  A    between atoms: _505  and  _508
REMARK  209  A    between atoms: _508  and  _509
REMARK  210  A    between atoms: _514  and  _515
REMARK  211  A    between atoms: _517  and  _519
REMARK  212  A    between atoms: _519  and  _520
REMARK  213  A    between atoms: _519  and  _522
REMARK  214  A    between atoms: _522  and  _523
REMARK  215  A    between atoms: _526  and  _528
REMARK  216  A    between atoms: _528  and  _529
REMARK  217  A    between atoms: _528  and  _531
REMARK  218  A    between atoms: _531  and  _532
REMARK  219  A    between atoms: _537  and  _538
REMARK                            x       y       z     vdW  Elec       q    Type
REMARK                         _______ _______ _______ _____ _____    ______ ____
ROOT
ATOM      1  O   HOH     1      23.278  78.866  -3.527  0.00  0.00    +0.000 OA
ENDROOT
TORSDOF 0
REMARK  Name = ../refined-set-2016/4aoi/4aoi_pocket.pdb
REMARK  219 active torsions:
REMARK  status: ('A' for Active; 'I' for Inactive)
REMARK    1  A    between atoms: _1  and  _3
REMARK    2  A    between atoms: _3  and  _4
REMARK    3  A    between atoms: _3  and  _6
REMARK    4  A    between atoms: _9  and  _11
REMARK    5  A    between atoms: _11  and  _12
REMARK    6  A    between atoms: _11  and  _14
REMARK    7  A    between atoms: _14  and  _15
REMARK    8  A    between atoms: _18  and  _20
REMARK    9  A    between atoms: _20  and  _21
REMARK   10  A    between atoms: _23  and  _25
REMARK   11  A    between atoms: _25  and  _26
REMARK   12  A    between atoms: _25  and  _28
REMARK   13  A    between atoms: _28  and  _29
REMARK   14  A    between atoms: _29  and  _30
REMARK   15  A    between atoms: _30  and  _31
REMARK   16  A    between atoms: _40  and  _42
REMARK   17  A    between atoms: _42  and  _43
REMARK   18  A    between atoms: _45  and  _47
REMARK   19  A    between atoms: _47  and  _48
REMARK   20  A    between atoms: _47  and  _50
REMARK   21  A    between atoms: _52  and  _54
REMARK   22  A    between atoms: _54  and  _55
REMARK   23  A    between atoms: _54  and  _57
REMARK   24  A    between atoms: _60  and  _62
REMARK   25  A    between atoms: _62  and  _63
REMARK   26  A    between atoms: _62  and  _65
REMARK   27  A    between atoms: _65  and  _66
REMARK   28  A    between atoms: _71  and  _72
REMARK   29  A    between atoms: _74  and  _76
REMARK   30  A    between atoms: _76  and  _77
REMARK   31  A    between atoms: _76  and  _79
REMARK   32  A    between atoms: _79  and  _80
REMARK   33  A    between atoms: _85  and  _87
REMARK   34  A    between atoms: _87  and  _88
REMARK   35  A    between atoms: _90  and  _92
REMARK   36  A    between atoms: _92  and  _93
REMARK   37  A    between atoms: _92  and  _95
REMARK   38  A    between atoms: _95  and  _96
REMARK   39  A    between atoms: _101  and  _103
REMARK   40  A    between atoms: _103  and  _104
REMARK   41  A    between atoms: _103  and  _106
REMARK   42  A    between atoms: _108  and  _110
REMARK   43  A    between atoms: _110  and  _111
REMARK   44  A    between atoms: _114  and  _116
REMARK   45  A    between atoms: _116  and  _117
REMARK   46  A    between atoms: _116  and  _119
REMARK   47  A    between atoms: _122  and  _124
REMARK   48  A    between atoms: _124  and  _125
REMARK   49  A    between atoms: _124  and  _127
REMARK   50  A    between atoms: _127  and  _128
REMARK   51  A    between atoms: _128  and  _129
REMARK   52  A    between atoms: _129  and  _130
REMARK   53  A    between atoms: _130  and  _131
REMARK   54  A    between atoms: _135  and  _137
REMARK   55  A    between atoms: _137  and  _138
REMARK   56  A    between atoms: _137  and  _140
REMARK   57  A    between atoms: _140  and  _141
REMARK   58  A    between atoms: _143  and  _145
REMARK   59  A    between atoms: _145  and  _146
REMARK   60  A    between atoms: _145  and  _148
REMARK   61  A    between atoms: _148  and  _149
REMARK   62  A    between atoms: _149  and  _150
REMARK   63  A    between atoms: _152  and  _154
REMARK   64  A    between atoms: _154  and  _155
REMARK   65  A    between atoms: _154  and  _157
REMARK   66  A    between atoms: _157  and  _158
REMARK   67  A    between atoms: _161  and  _163
REMARK   68  A    between atoms: _163  and  _164
REMARK   69  A    between atoms: _163  and  _166
REMARK   70  A    between atoms: _166  and  _167
REMARK   71  A    between atoms: _169  and  _171
REMARK   72  A    between atoms: _171  and  _172
REMARK   73  A    between atoms: _171  and  _174
REMARK   74  A    between atoms: _177  and  _179
REMARK   75  A    between atoms: _179  and  _180
REMARK   76  A    between atoms: _179  and  _182
REMARK   77  A    between atoms: _185  and  _187
REMARK   78  A    between atoms: _187  and  _188
REMARK   79  A    between atoms: _187  and  _190
REMARK   80  A    between atoms: _190  and  _191
REMARK   81  A    between atoms: _195  and  _196
REMARK   82  A    between atoms: _201  and  _203
REMARK   83  A    between atoms: _203  and  _204
REMARK   84  A    between atoms: _203  and  _206
REMARK   85  A    between atoms: _206  and  _207
REMARK   86  A    between atoms: _212  and  _213
REMARK   87  A    between atoms: _215  and  _217
REMARK   88  A    between atoms: _217  and  _218
REMARK   89  A    between atoms: _217  and  _220
REMARK   90  A    between atoms: _220  and  _221
REMARK   91  A    between atoms: _221  and  _222
REMARK   92  A    between atoms: _224  and  _226
REMARK   93  A    between atoms: _226  and  _227
REMARK   94  A    between atoms: _226  and  _229
REMARK   95  A    between atoms: _229  and  _230
REMARK   96  A    between atoms: _230  and  _231
REMARK   97  A    between atoms: _231  and  _232
REMARK   98  A    between atoms: _232  and  _233
REMARK   99  A    between atoms: _237  and  _239
REMARK  100  A    between atoms: _239  and  _240
REMARK  101  A    between atoms: _239  and  _242
REMARK  102  A    between atoms: _242  and  _243
REMARK  103  A    between atoms: _248  and  _250
REMARK  104  A    between atoms: _250  and  _251
REMARK  105  A    between atoms: _253  and  _255
REMARK  106  A    between atoms: _255  and  _256
REMARK  107  A    between atoms: _255  and  _258
REMARK  108  A    between atoms: _258  and  _259
REMARK  109  A    between atoms: _262  and  _264
REMARK  110  A    between atoms: _264  and  _265
REMARK  111  A    between atoms: _264  and  _267
REMARK  112  A    between atoms: _267  and  _268
REMARK  113  A    between atoms: _271  and  _273
REMARK  114  A    between atoms: _273  and  _274
REMARK  115  A    between atoms: _273  and  _276
REMARK  116  A    between atoms: _276  and  _277
REMARK  117  A    between atoms: _277  and  _278
REMARK  118  A    between atoms: _278  and  _279
REMARK  119  A    between atoms: _288  and  _290
REMARK  120  A    between atoms: _290  and  _291
REMARK  121  A    between atoms: _290  and  _293
REMARK  122  A    between atoms: _293  and  _294
REMARK  123  A    between atoms: _299  and  _301
REMARK  124  A    between atoms: _301  and  _302
REMARK  125  A    between atoms: _301  and  _304
REMARK  126  A    between atoms: _304  and  _305
REMARK  127  A    between atoms: _311  and  _313
REMARK  128  A    between atoms: _313  and  _314
REMARK  129  A    between atoms: _313  and  _316
REMARK  130  A    between atoms: _316  and  _317
REMARK  131  A    between atoms: _322  and  _324
REMARK  132  A    between atoms: _324  and  _325
REMARK  133  A    between atoms: _324  and  _327
REMARK  134  A    between atoms: _327  and  _328
REMARK  135  A    between atoms: _331  and  _333
REMARK  136  A    between atoms: _333  and  _334
REMARK  137  A    between atoms: _337  and  _339
REMARK  138  A    between atoms: _339  and  _340
REMARK  139  A    between atoms: _343  and  _345
REMARK  140  A    between atoms: _345  and  _346
REMARK  141  A    between atoms: _345  and  _348
REMARK  142  A    between atoms: _348  and  _349
REMARK  143  A    between atoms: _349  and  _350
REMARK  144  A    between atoms: _350  and  _351
REMARK  145  A    between atoms: _360  and  _362
REMARK  146  A    between atoms: _362  and  _363
REMARK  147  A    between atoms: _362  and  _365
REMARK  148  A    between atoms: _365  and  _366
REMARK  149  A    between atoms: _371  and  _373
REMARK  150  A    between atoms: _373  and  _374
REMARK  151  A    between atoms: _373  and  _376
REMARK  152  A    between atoms: _378  and  _380
REMARK  153  A    between atoms: _380  and  _381
REMARK  154  A    between atoms: _380  and  _383
REMARK  155  A    between atoms: _383  and  _384
REMARK  156  A    between atoms: _384  and  _385
REMARK  157  A    between atoms: _387  and  _389
REMARK  158  A    between atoms: _389  and  _390
REMARK  159  A    between atoms: _389  and  _392
REMARK  160  A    between atoms: _392  and  _393
REMARK  161  A    between atoms: _396  and  _398
REMARK  162  A    between atoms: _398  and  _399
REMARK  163  A    between atoms: _398  and  _401
REMARK  164  A    between atoms: _401  and  _402
REMARK  165  A    between atoms: _405  and  _407
REMARK  166  A    between atoms: _407  and  _408
REMARK  167  A    between atoms: _407  and  _410
REMARK  168  A    between atoms: _410  and  _411
REMARK  169  A    between atoms: _411  and  _412
REMARK  170  A    between atoms: _412  and  _413
REMARK  171  A    between atoms: _413  and  _414
REMARK  172  A    between atoms: _418  and  _420
REMARK  173  A    between atoms: _420  and  _421
REMARK  174  A    between atoms: _420  and  _423
REMARK  175  A    between atoms: _426  and  _428
REMARK  176  A    between atoms: _428  and  _429
REMARK  177  A    between atoms: _432  and  _434
REMARK  178  A    between atoms: _434  and  _435
REMARK  179  A    between atoms: _434  and  _437
REMARK  180  A    between atoms: _437  and  _438
REMARK  181  A    between atoms: _441  and  _443
REMARK  182  A    between atoms: _443  and  _444
REMARK  183  A    between atoms: _443  and  _446
REMARK  184  A    between atoms: _446  and  _447
REMARK  185  A    between atoms: _453  and  _455
REMARK  186  A    between atoms: _455  and  _456
REMARK  187  A    between atoms: _455  and  _458
REMARK  188  A    between atoms: _458  and  _459
REMARK  189  A    between atoms: _462  and  _464
REMARK  190  A    between atoms: _464  and  _465
REMARK  191  A    between atoms: _468  and  _470
REMARK  192  A    between atoms: _470  and  _471
REMARK  193  A    between atoms: _470  and  _473
REMARK  194  A    between atoms: _473  and  _474
REMARK  195  A    between atoms: _474  and  _475
REMARK  196  A    between atoms: _475  and  _476
REMARK  197  A    between atoms: _485  and  _487
REMARK  198  A    between atoms: _487  and  _488
REMARK  199  A    between atoms: _487  and  _490
REMARK  200  A    between atoms: _490  and  _491
REMARK  201  A    between atoms: _494  and  _496
REMARK  202  A    between atoms: _496  and  _497
REMARK  203  A    between atoms: _496  and  _499
REMARK  204  A    between atoms: _499  and  _500
REMARK  205  A    between atoms: _500  and  _501
REMARK  206  A    between atoms: _503  and  _505
REMARK  207  A    between atoms: _505  and  _506
REMARK  208  A    between atoms: _505  and  _508
REMARK  209  A    between atoms: _508  and  _509
REMARK  210  A    between atoms: _514  and  _515
REMARK  211  A    between atoms: _517  and  _519
REMARK  212  A    between atoms: _519  and  _520
REMARK  213  A    between atoms: _519  and  _522
REMARK  214  A    between atoms: _522  and  _523
REMARK  215  A    between atoms: _526  and  _528
REMARK  216  A    between atoms: _528  and  _529
REMARK  217  A    between atoms: _528  and  _531
REMARK  218  A    between atoms: _531  and  _532
REMARK  219  A    between atoms: _537  and  _538
REMARK                            x       y       z     vdW  Elec       q    Type
REMARK                         _______ _______ _______ _____ _____    ______ ____
ROOT
ATOM      1  O   HOH     1      23.096  83.193   0.330  0.00  0.00    +0.000 OA
ENDROOT
TORSDOF 0
REMARK  Name = ../refined-set-2016/4aoi/4aoi_pocket.pdb
REMARK  219 active torsions:
REMARK  status: ('A' for Active; 'I' for Inactive)
REMARK    1  A    between atoms: _1  and  _3
REMARK    2  A    between atoms: _3  and  _4
REMARK    3  A    between atoms: _3  and  _6
REMARK    4  A    between atoms: _9  and  _11
REMARK    5  A    between atoms: _11  and  _12
REMARK    6  A    between atoms: _11  and  _14
REMARK    7  A    between atoms: _14  and  _15
REMARK    8  A    between atoms: _18  and  _20
REMARK    9  A    between atoms: _20  and  _21
REMARK   10  A    between atoms: _23  and  _25
REMARK   11  A    between atoms: _25  and  _26
REMARK   12  A    between atoms: _25  and  _28
REMARK   13  A    between atoms: _28  and  _29
REMARK   14  A    between atoms: _29  and  _30
REMARK   15  A    between atoms: _30  and  _31
REMARK   16  A    between atoms: _40  and  _42
REMARK   17  A    between atoms: _42  and  _43
REMARK   18  A    between atoms: _45  and  _47
REMARK   19  A    between atoms: _47  and  _48
REMARK   20  A    between atoms: _47  and  _50
REMARK   21  A    between atoms: _52  and  _54
REMARK   22  A    between atoms: _54  and  _55
REMARK   23  A    between atoms: _54  and  _57
REMARK   24  A    between atoms: _60  and  _62
REMARK   25  A    between atoms: _62  and  _63
REMARK   26  A    between atoms: _62  and  _65
REMARK   27  A    between atoms: _65  and  _66
REMARK   28  A    between atoms: _71  and  _72
REMARK   29  A    between atoms: _74  and  _76
REMARK   30  A    between atoms: _76  and  _77
REMARK   31  A    between atoms: _76  and  _79
REMARK   32  A    between atoms: _79  and  _80
REMARK   33  A    between atoms: _85  and  _87
REMARK   34  A    between atoms: _87  and  _88
REMARK   35  A    between atoms: _90  and  _92
REMARK   36  A    between atoms: _92  and  _93
REMARK   37  A    between atoms: _92  and  _95
REMARK   38  A    between atoms: _95  and  _96
REMARK   39  A    between atoms: _101  and  _103
REMARK   40  A    between atoms: _103  and  _104
REMARK   41  A    between atoms: _103  and  _106
REMARK   42  A    between atoms: _108  and  _110
REMARK   43  A    between atoms: _110  and  _111
REMARK   44  A    between atoms: _114  and  _116
REMARK   45  A    between atoms: _116  and  _117
REMARK   46  A    between atoms: _116  and  _119
REMARK   47  A    between atoms: _122  and  _124
REMARK   48  A    between atoms: _124  and  _125
REMARK   49  A    between atoms: _124  and  _127
REMARK   50  A    between atoms: _127  and  _128
REMARK   51  A    between atoms: _128  and  _129
REMARK   52  A    between atoms: _129  and  _130
REMARK   53  A    between atoms: _130  and  _131
REMARK   54  A    between atoms: _135  and  _137
REMARK   55  A    between atoms: _137  and  _138
REMARK   56  A    between atoms: _137  and  _140
REMARK   57  A    between atoms: _140  and  _141
REMARK   58  A    between atoms: _143  and  _145
REMARK   59  A    between atoms: _145  and  _146
REMARK   60  A    between atoms: _145  and  _148
REMARK   61  A    between atoms: _148  and  _149
REMARK   62  A    between atoms: _149  and  _150
REMARK   63  A    between atoms: _152  and  _154
REMARK   64  A    between atoms: _154  and  _155
REMARK   65  A    between atoms: _154  and  _157
REMARK   66  A    between atoms: _157  and  _158
REMARK   67  A    between atoms: _161  and  _163
REMARK   68  A    between atoms: _163  and  _164
REMARK   69  A    between atoms: _163  and  _166
REMARK   70  A    between atoms: _166  and  _167
REMARK   71  A    between atoms: _169  and  _171
REMARK   72  A    between atoms: _171  and  _172
REMARK   73  A    between atoms: _171  and  _174
REMARK   74  A    between atoms: _177  and  _179
REMARK   75  A    between atoms: _179  and  _180
REMARK   76  A    between atoms: _179  and  _182
REMARK   77  A    between atoms: _185  and  _187
REMARK   78  A    between atoms: _187  and  _188
REMARK   79  A    between atoms: _187  and  _190
REMARK   80  A    between atoms: _190  and  _191
REMARK   81  A    between atoms: _195  and  _196
REMARK   82  A    between atoms: _201  and  _203
REMARK   83  A    between atoms: _203  and  _204
REMARK   84  A    between atoms: _203  and  _206
REMARK   85  A    between atoms: _206  and  _207
REMARK   86  A    between atoms: _212  and  _213
REMARK   87  A    between atoms: _215  and  _217
REMARK   88  A    between atoms: _217  and  _218
REMARK   89  A    between atoms: _217  and  _220
REMARK   90  A    between atoms: _220  and  _221
REMARK   91  A    between atoms: _221  and  _222
REMARK   92  A    between atoms: _224  and  _226
REMARK   93  A    between atoms: _226  and  _227
REMARK   94  A    between atoms: _226  and  _229
REMARK   95  A    between atoms: _229  and  _230
REMARK   96  A    between atoms: _230  and  _231
REMARK   97  A    between atoms: _231  and  _232
REMARK   98  A    between atoms: _232  and  _233
REMARK   99  A    between atoms: _237  and  _239
REMARK  100  A    between atoms: _239  and  _240
REMARK  101  A    between atoms: _239  and  _242
REMARK  102  A    between atoms: _242  and  _243
REMARK  103  A    between atoms: _248  and  _250
REMARK  104  A    between atoms: _250  and  _251
REMARK  105  A    between atoms: _253  and  _255
REMARK  106  A    between atoms: _255  and  _256
REMARK  107  A    between atoms: _255  and  _258
REMARK  108  A    between atoms: _258  and  _259
REMARK  109  A    between atoms: _262  and  _264
REMARK  110  A    between atoms: _264  and  _265
REMARK  111  A    between atoms: _264  and  _267
REMARK  112  A    between atoms: _267  and  _268
REMARK  113  A    between atoms: _271  and  _273
REMARK  114  A    between atoms: _273  and  _274
REMARK  115  A    between atoms: _273  and  _276
REMARK  116  A    between atoms: _276  and  _277
REMARK  117  A    between atoms: _277  and  _278
REMARK  118  A    between atoms: _278  and  _279
REMARK  119  A    between atoms: _288  and  _290
REMARK  120  A    between atoms: _290  and  _291
REMARK  121  A    between atoms: _290  and  _293
REMARK  122  A    between atoms: _293  and  _294
REMARK  123  A    between atoms: _299  and  _301
REMARK  124  A    between atoms: _301  and  _302
REMARK  125  A    between atoms: _301  and  _304
REMARK  126  A    between atoms: _304  and  _305
REMARK  127  A    between atoms: _311  and  _313
REMARK  128  A    between atoms: _313  and  _314
REMARK  129  A    between atoms: _313  and  _316
REMARK  130  A    between atoms: _316  and  _317
REMARK  131  A    between atoms: _322  and  _324
REMARK  132  A    between atoms: _324  and  _325
REMARK  133  A    between atoms: _324  and  _327
REMARK  134  A    between atoms: _327  and  _328
REMARK  135  A    between atoms: _331  and  _333
REMARK  136  A    between atoms: _333  and  _334
REMARK  137  A    between atoms: _337  and  _339
REMARK  138  A    between atoms: _339  and  _340
REMARK  139  A    between atoms: _343  and  _345
REMARK  140  A    between atoms: _345  and  _346
REMARK  141  A    between atoms: _345  and  _348
REMARK  142  A    between atoms: _348  and  _349
REMARK  143  A    between atoms: _349  and  _350
REMARK  144  A    between atoms: _350  and  _351
REMARK  145  A    between atoms: _360  and  _362
REMARK  146  A    between atoms: _362  and  _363
REMARK  147  A    between atoms: _362  and  _365
REMARK  148  A    between atoms: _365  and  _366
REMARK  149  A    between atoms: _371  and  _373
REMARK  150  A    between atoms: _373  and  _374
REMARK  151  A    between atoms: _373  and  _376
REMARK  152  A    between atoms: _378  and  _380
REMARK  153  A    between atoms: _380  and  _381
REMARK  154  A    between atoms: _380  and  _383
REMARK  155  A    between atoms: _383  and  _384
REMARK  156  A    between atoms: _384  and  _385
REMARK  157  A    between atoms: _387  and  _389
REMARK  158  A    between atoms: _389  and  _390
REMARK  159  A    between atoms: _389  and  _392
REMARK  160  A    between atoms: _392  and  _393
REMARK  161  A    between atoms: _396  and  _398
REMARK  162  A    between atoms: _398  and  _399
REMARK  163  A    between atoms: _398  and  _401
REMARK  164  A    between atoms: _401  and  _402
REMARK  165  A    between atoms: _405  and  _407
REMARK  166  A    between atoms: _407  and  _408
REMARK  167  A    between atoms: _407  and  _410
REMARK  168  A    between atoms: _410  and  _411
REMARK  169  A    between atoms: _411  and  _412
REMARK  170  A    between atoms: _412  and  _413
REMARK  171  A    between atoms: _413  and  _414
REMARK  172  A    between atoms: _418  and  _420
REMARK  173  A    between atoms: _420  and  _421
REMARK  174  A    between atoms: _420  and  _423
REMARK  175  A    between atoms: _426  and  _428
REMARK  176  A    between atoms: _428  and  _429
REMARK  177  A    between atoms: _432  and  _434
REMARK  178  A    between atoms: _434  and  _435
REMARK  179  A    between atoms: _434  and  _437
REMARK  180  A    between atoms: _437  and  _438
REMARK  181  A    between atoms: _441  and  _443
REMARK  182  A    between atoms: _443  and  _444
REMARK  183  A    between atoms: _443  and  _446
REMARK  184  A    between atoms: _446  and  _447
REMARK  185  A    between atoms: _453  and  _455
REMARK  186  A    between atoms: _455  and  _456
REMARK  187  A    between atoms: _455  and  _458
REMARK  188  A    between atoms: _458  and  _459
REMARK  189  A    between atoms: _462  and  _464
REMARK  190  A    between atoms: _464  and  _465
REMARK  191  A    between atoms: _468  and  _470
REMARK  192  A    between atoms: _470  and  _471
REMARK  193  A    between atoms: _470  and  _473
REMARK  194  A    between atoms: _473  and  _474
REMARK  195  A    between atoms: _474  and  _475
REMARK  196  A    between atoms: _475  and  _476
REMARK  197  A    between atoms: _485  and  _487
REMARK  198  A    between atoms: _487  and  _488
REMARK  199  A    between atoms: _487  and  _490
REMARK  200  A    between atoms: _490  and  _491
REMARK  201  A    between atoms: _494  and  _496
REMARK  202  A    between atoms: _496  and  _497
REMARK  203  A    between atoms: _496  and  _499
REMARK  204  A    between atoms: _499  and  _500
REMARK  205  A    between atoms: _500  and  _501
REMARK  206  A    between atoms: _503  and  _505
REMARK  207  A    between atoms: _505  and  _506
REMARK  208  A    between atoms: _505  and  _508
REMARK  209  A    between atoms: _508  and  _509
REMARK  210  A    between atoms: _514  and  _515
REMARK  211  A    between atoms: _517  and  _519
REMARK  212  A    between atoms: _519  and  _520
REMARK  213  A    between atoms: _519  and  _522
REMARK  214  A    between atoms: _522  and  _523
REMARK  215  A    between atoms: _526  and  _528
REMARK  216  A    between atoms: _528  and  _529
REMARK  217  A    between atoms: _528  and  _531
REMARK  218  A    between atoms: _531  and  _532
REMARK  219  A    between atoms: _537  and  _538
REMARK                            x       y       z     vdW  Elec       q    Type
REMARK                         _______ _______ _______ _____ _____    ______ ____
ROOT
ATOM      1  O   HOH     1      20.001  84.895  -3.048  0.00  0.00    +0.000 OA
ENDROOT
TORSDOF 0
REMARK  Name = ../refined-set-2016/4aoi/4aoi_pocket.pdb
REMARK  219 active torsions:
REMARK  status: ('A' for Active; 'I' for Inactive)
REMARK    1  A    between atoms: _1  and  _3
REMARK    2  A    between atoms: _3  and  _4
REMARK    3  A    between atoms: _3  and  _6
REMARK    4  A    between atoms: _9  and  _11
REMARK    5  A    between atoms: _11  and  _12
REMARK    6  A    between atoms: _11  and  _14
REMARK    7  A    between atoms: _14  and  _15
REMARK    8  A    between atoms: _18  and  _20
REMARK    9  A    between atoms: _20  and  _21
REMARK   10  A    between atoms: _23  and  _25
REMARK   11  A    between atoms: _25  and  _26
REMARK   12  A    between atoms: _25  and  _28
REMARK   13  A    between atoms: _28  and  _29
REMARK   14  A    between atoms: _29  and  _30
REMARK   15  A    between atoms: _30  and  _31
REMARK   16  A    between atoms: _40  and  _42
REMARK   17  A    between atoms: _42  and  _43
REMARK   18  A    between atoms: _45  and  _47
REMARK   19  A    between atoms: _47  and  _48
REMARK   20  A    between atoms: _47  and  _50
REMARK   21  A    between atoms: _52  and  _54
REMARK   22  A    between atoms: _54  and  _55
REMARK   23  A    between atoms: _54  and  _57
REMARK   24  A    between atoms: _60  and  _62
REMARK   25  A    between atoms: _62  and  _63
REMARK   26  A    between atoms: _62  and  _65
REMARK   27  A    between atoms: _65  and  _66
REMARK   28  A    between atoms: _71  and  _72
REMARK   29  A    between atoms: _74  and  _76
REMARK   30  A    between atoms: _76  and  _77
REMARK   31  A    between atoms: _76  and  _79
REMARK   32  A    between atoms: _79  and  _80
REMARK   33  A    between atoms: _85  and  _87
REMARK   34  A    between atoms: _87  and  _88
REMARK   35  A    between atoms: _90  and  _92
REMARK   36  A    between atoms: _92  and  _93
REMARK   37  A    between atoms: _92  and  _95
REMARK   38  A    between atoms: _95  and  _96
REMARK   39  A    between atoms: _101  and  _103
REMARK   40  A    between atoms: _103  and  _104
REMARK   41  A    between atoms: _103  and  _106
REMARK   42  A    between atoms: _108  and  _110
REMARK   43  A    between atoms: _110  and  _111
REMARK   44  A    between atoms: _114  and  _116
REMARK   45  A    between atoms: _116  and  _117
REMARK   46  A    between atoms: _116  and  _119
REMARK   47  A    between atoms: _122  and  _124
REMARK   48  A    between atoms: _124  and  _125
REMARK   49  A    between atoms: _124  and  _127
REMARK   50  A    between atoms: _127  and  _128
REMARK   51  A    between atoms: _128  and  _129
REMARK   52  A    between atoms: _129  and  _130
REMARK   53  A    between atoms: _130  and  _131
REMARK   54  A    between atoms: _135  and  _137
REMARK   55  A    between atoms: _137  and  _138
REMARK   56  A    between atoms: _137  and  _140
REMARK   57  A    between atoms: _140  and  _141
REMARK   58  A    between atoms: _143  and  _145
REMARK   59  A    between atoms: _145  and  _146
REMARK   60  A    between atoms: _145  and  _148
REMARK   61  A    between atoms: _148  and  _149
REMARK   62  A    between atoms: _149  and  _150
REMARK   63  A    between atoms: _152  and  _154
REMARK   64  A    between atoms: _154  and  _155
REMARK   65  A    between atoms: _154  and  _157
REMARK   66  A    between atoms: _157  and  _158
REMARK   67  A    between atoms: _161  and  _163
REMARK   68  A    between atoms: _163  and  _164
REMARK   69  A    between atoms: _163  and  _166
REMARK   70  A    between atoms: _166  and  _167
REMARK   71  A    between atoms: _169  and  _171
REMARK   72  A    between atoms: _171  and  _172
REMARK   73  A    between atoms: _171  and  _174
REMARK   74  A    between atoms: _177  and  _179
REMARK   75  A    between atoms: _179  and  _180
REMARK   76  A    between atoms: _179  and  _182
REMARK   77  A    between atoms: _185  and  _187
REMARK   78  A    between atoms: _187  and  _188
REMARK   79  A    between atoms: _187  and  _190
REMARK   80  A    between atoms: _190  and  _191
REMARK   81  A    between atoms: _195  and  _196
REMARK   82  A    between atoms: _201  and  _203
REMARK   83  A    between atoms: _203  and  _204
REMARK   84  A    between atoms: _203  and  _206
REMARK   85  A    between atoms: _206  and  _207
REMARK   86  A    between atoms: _212  and  _213
REMARK   87  A    between atoms: _215  and  _217
REMARK   88  A    between atoms: _217  and  _218
REMARK   89  A    between atoms: _217  and  _220
REMARK   90  A    between atoms: _220  and  _221
REMARK   91  A    between atoms: _221  and  _222
REMARK   92  A    between atoms: _224  and  _226
REMARK   93  A    between atoms: _226  and  _227
REMARK   94  A    between atoms: _226  and  _229
REMARK   95  A    between atoms: _229  and  _230
REMARK   96  A    between atoms: _230  and  _231
REMARK   97  A    between atoms: _231  and  _232
REMARK   98  A    between atoms: _232  and  _233
REMARK   99  A    between atoms: _237  and  _239
REMARK  100  A    between atoms: _239  and  _240
REMARK  101  A    between atoms: _239  and  _242
REMARK  102  A    between atoms: _242  and  _243
REMARK  103  A    between atoms: _248  and  _250
REMARK  104  A    between atoms: _250  and  _251
REMARK  105  A    between atoms: _253  and  _255
REMARK  106  A    between atoms: _255  and  _256
REMARK  107  A    between atoms: _255  and  _258
REMARK  108  A    between atoms: _258  and  _259
REMARK  109  A    between atoms: _262  and  _264
REMARK  110  A    between atoms: _264  and  _265
REMARK  111  A    between atoms: _264  and  _267
REMARK  112  A    between atoms: _267  and  _268
REMARK  113  A    between atoms: _271  and  _273
REMARK  114  A    between atoms: _273  and  _274
REMARK  115  A    between atoms: _273  and  _276
REMARK  116  A    between atoms: _276  and  _277
REMARK  117  A    between atoms: _277  and  _278
REMARK  118  A    between atoms: _278  and  _279
REMARK  119  A    between atoms: _288  and  _290
REMARK  120  A    between atoms: _290  and  _291
REMARK  121  A    between atoms: _290  and  _293
REMARK  122  A    between atoms: _293  and  _294
REMARK  123  A    between atoms: _299  and  _301
REMARK  124  A    between atoms: _301  and  _302
REMARK  125  A    between atoms: _301  and  _304
REMARK  126  A    between atoms: _304  and  _305
REMARK  127  A    between atoms: _311  and  _313
REMARK  128  A    between atoms: _313  and  _314
REMARK  129  A    between atoms: _313  and  _316
REMARK  130  A    between atoms: _316  and  _317
REMARK  131  A    between atoms: _322  and  _324
REMARK  132  A    between atoms: _324  and  _325
REMARK  133  A    between atoms: _324  and  _327
REMARK  134  A    between atoms: _327  and  _328
REMARK  135  A    between atoms: _331  and  _333
REMARK  136  A    between atoms: _333  and  _334
REMARK  137  A    between atoms: _337  and  _339
REMARK  138  A    between atoms: _339  and  _340
REMARK  139  A    between atoms: _343  and  _345
REMARK  140  A    between atoms: _345  and  _346
REMARK  141  A    between atoms: _345  and  _348
REMARK  142  A    between atoms: _348  and  _349
REMARK  143  A    between atoms: _349  and  _350
REMARK  144  A    between atoms: _350  and  _351
REMARK  145  A    between atoms: _360  and  _362
REMARK  146  A    between atoms: _362  and  _363
REMARK  147  A    between atoms: _362  and  _365
REMARK  148  A    between atoms: _365  and  _366
REMARK  149  A    between atoms: _371  and  _373
REMARK  150  A    between atoms: _373  and  _374
REMARK  151  A    between atoms: _373  and  _376
REMARK  152  A    between atoms: _378  and  _380
REMARK  153  A    between atoms: _380  and  _381
REMARK  154  A    between atoms: _380  and  _383
REMARK  155  A    between atoms: _383  and  _384
REMARK  156  A    between atoms: _384  and  _385
REMARK  157  A    between atoms: _387  and  _389
REMARK  158  A    between atoms: _389  and  _390
REMARK  159  A    between atoms: _389  and  _392
REMARK  160  A    between atoms: _392  and  _393
REMARK  161  A    between atoms: _396  and  _398
REMARK  162  A    between atoms: _398  and  _399
REMARK  163  A    between atoms: _398  and  _401
REMARK  164  A    between atoms: _401  and  _402
REMARK  165  A    between atoms: _405  and  _407
REMARK  166  A    between atoms: _407  and  _408
REMARK  167  A    between atoms: _407  and  _410
REMARK  168  A    between atoms: _410  and  _411
REMARK  169  A    between atoms: _411  and  _412
REMARK  170  A    between atoms: _412  and  _413
REMARK  171  A    between atoms: _413  and  _414
REMARK  172  A    between atoms: _418  and  _420
REMARK  173  A    between atoms: _420  and  _421
REMARK  174  A    between atoms: _420  and  _423
REMARK  175  A    between atoms: _426  and  _428
REMARK  176  A    between atoms: _428  and  _429
REMARK  177  A    between atoms: _432  and  _434
REMARK  178  A    between atoms: _434  and  _435
REMARK  179  A    between atoms: _434  and  _437
REMARK  180  A    between atoms: _437  and  _438
REMARK  181  A    between atoms: _441  and  _443
REMARK  182  A    between atoms: _443  and  _444
REMARK  183  A    between atoms: _443  and  _446
REMARK  184  A    between atoms: _446  and  _447
REMARK  185  A    between atoms: _453  and  _455
REMARK  186  A    between atoms: _455  and  _456
REMARK  187  A    between atoms: _455  and  _458
REMARK  188  A    between atoms: _458  and  _459
REMARK  189  A    between atoms: _462  and  _464
REMARK  190  A    between atoms: _464  and  _465
REMARK  191  A    between atoms: _468  and  _470
REMARK  192  A    between atoms: _470  and  _471
REMARK  193  A    between atoms: _470  and  _473
REMARK  194  A    between atoms: _473  and  _474
REMARK  195  A    between atoms: _474  and  _475
REMARK  196  A    between atoms: _475  and  _476
REMARK  197  A    between atoms: _485  and  _487
REMARK  198  A    between atoms: _487  and  _488
REMARK  199  A    between atoms: _487  and  _490
REMARK  200  A    between atoms: _490  and  _491
REMARK  201  A    between atoms: _494  and  _496
REMARK  202  A    between atoms: _496  and  _497
REMARK  203  A    between atoms: _496  and  _499
REMARK  204  A    between atoms: _499  and  _500
REMARK  205  A    between atoms: _500  and  _501
REMARK  206  A    between atoms: _503  and  _505
REMARK  207  A    between atoms: _505  and  _506
REMARK  208  A    between atoms: _505  and  _508
REMARK  209  A    between atoms: _508  and  _509
REMARK  210  A    between atoms: _514  and  _515
REMARK  211  A    between atoms: _517  and  _519
REMARK  212  A    between atoms: _519  and  _520
REMARK  213  A    between atoms: _519  and  _522
REMARK  214  A    between atoms: _522  and  _523
REMARK  215  A    between atoms: _526  and  _528
REMARK  216  A    between atoms: _528  and  _529
REMARK  217  A    between atoms: _528  and  _531
REMARK  218  A    between atoms: _531  and  _532
REMARK  219  A    between atoms: _537  and  _538
REMARK                            x       y       z     vdW  Elec       q    Type
REMARK                         _______ _______ _______ _____ _____    ______ ____
ROOT
ATOM      1  O   HOH     1      16.510  83.229  -0.446  0.00  0.00    +0.000 OA
ENDROOT
TORSDOF 0
REMARK  Name = ../refined-set-2016/4aoi/4aoi_pocket.pdb
REMARK  219 active torsions:
REMARK  status: ('A' for Active; 'I' for Inactive)
REMARK    1  A    between atoms: _1  and  _3
REMARK    2  A    between atoms: _3  and  _4
REMARK    3  A    between atoms: _3  and  _6
REMARK    4  A    between atoms: _9  and  _11
REMARK    5  A    between atoms: _11  and  _12
REMARK    6  A    between atoms: _11  and  _14
REMARK    7  A    between atoms: _14  and  _15
REMARK    8  A    between atoms: _18  and  _20
REMARK    9  A    between atoms: _20  and  _21
REMARK   10  A    between atoms: _23  and  _25
REMARK   11  A    between atoms: _25  and  _26
REMARK   12  A    between atoms: _25  and  _28
REMARK   13  A    between atoms: _28  and  _29
REMARK   14  A    between atoms: _29  and  _30
REMARK   15  A    between atoms: _30  and  _31
REMARK   16  A    between atoms: _40  and  _42
REMARK   17  A    between atoms: _42  and  _43
REMARK   18  A    between atoms: _45  and  _47
REMARK   19  A    between atoms: _47  and  _48
REMARK   20  A    between atoms: _47  and  _50
REMARK   21  A    between atoms: _52  and  _54
REMARK   22  A    between atoms: _54  and  _55
REMARK   23  A    between atoms: _54  and  _57
REMARK   24  A    between atoms: _60  and  _62
REMARK   25  A    between atoms: _62  and  _63
REMARK   26  A    between atoms: _62  and  _65
REMARK   27  A    between atoms: _65  and  _66
REMARK   28  A    between atoms: _71  and  _72
REMARK   29  A    between atoms: _74  and  _76
REMARK   30  A    between atoms: _76  and  _77
REMARK   31  A    between atoms: _76  and  _79
REMARK   32  A    between atoms: _79  and  _80
REMARK   33  A    between atoms: _85  and  _87
REMARK   34  A    between atoms: _87  and  _88
REMARK   35  A    between atoms: _90  and  _92
REMARK   36  A    between atoms: _92  and  _93
REMARK   37  A    between atoms: _92  and  _95
REMARK   38  A    between atoms: _95  and  _96
REMARK   39  A    between atoms: _101  and  _103
REMARK   40  A    between atoms: _103  and  _104
REMARK   41  A    between atoms: _103  and  _106
REMARK   42  A    between atoms: _108  and  _110
REMARK   43  A    between atoms: _110  and  _111
REMARK   44  A    between atoms: _114  and  _116
REMARK   45  A    between atoms: _116  and  _117
REMARK   46  A    between atoms: _116  and  _119
REMARK   47  A    between atoms: _122  and  _124
REMARK   48  A    between atoms: _124  and  _125
REMARK   49  A    between atoms: _124  and  _127
REMARK   50  A    between atoms: _127  and  _128
REMARK   51  A    between atoms: _128  and  _129
REMARK   52  A    between atoms: _129  and  _130
REMARK   53  A    between atoms: _130  and  _131
REMARK   54  A    between atoms: _135  and  _137
REMARK   55  A    between atoms: _137  and  _138
REMARK   56  A    between atoms: _137  and  _140
REMARK   57  A    between atoms: _140  and  _141
REMARK   58  A    between atoms: _143  and  _145
REMARK   59  A    between atoms: _145  and  _146
REMARK   60  A    between atoms: _145  and  _148
REMARK   61  A    between atoms: _148  and  _149
REMARK   62  A    between atoms: _149  and  _150
REMARK   63  A    between atoms: _152  and  _154
REMARK   64  A    between atoms: _154  and  _155
REMARK   65  A    between atoms: _154  and  _157
REMARK   66  A    between atoms: _157  and  _158
REMARK   67  A    between atoms: _161  and  _163
REMARK   68  A    between atoms: _163  and  _164
REMARK   69  A    between atoms: _163  and  _166
REMARK   70  A    between atoms: _166  and  _167
REMARK   71  A    between atoms: _169  and  _171
REMARK   72  A    between atoms: _171  and  _172
REMARK   73  A    between atoms: _171  and  _174
REMARK   74  A    between atoms: _177  and  _179
REMARK   75  A    between atoms: _179  and  _180
REMARK   76  A    between atoms: _179  and  _182
REMARK   77  A    between atoms: _185  and  _187
REMARK   78  A    between atoms: _187  and  _188
REMARK   79  A    between atoms: _187  and  _190
REMARK   80  A    between atoms: _190  and  _191
REMARK   81  A    between atoms: _195  and  _196
REMARK   82  A    between atoms: _201  and  _203
REMARK   83  A    between atoms: _203  and  _204
REMARK   84  A    between atoms: _203  and  _206
REMARK   85  A    between atoms: _206  and  _207
REMARK   86  A    between atoms: _212  and  _213
REMARK   87  A    between atoms: _215  and  _217
REMARK   88  A    between atoms: _217  and  _218
REMARK   89  A    between atoms: _217  and  _220
REMARK   90  A    between atoms: _220  and  _221
REMARK   91  A    between atoms: _221  and  _222
REMARK   92  A    between atoms: _224  and  _226
REMARK   93  A    between atoms: _226  and  _227
REMARK   94  A    between atoms: _226  and  _229
REMARK   95  A    between atoms: _229  and  _230
REMARK   96  A    between atoms: _230  and  _231
REMARK   97  A    between atoms: _231  and  _232
REMARK   98  A    between atoms: _232  and  _233
REMARK   99  A    between atoms: _237  and  _239
REMARK  100  A    between atoms: _239  and  _240
REMARK  101  A    between atoms: _239  and  _242
REMARK  102  A    between atoms: _242  and  _243
REMARK  103  A    between atoms: _248  and  _250
REMARK  104  A    between atoms: _250  and  _251
REMARK  105  A    between atoms: _253  and  _255
REMARK  106  A    between atoms: _255  and  _256
REMARK  107  A    between atoms: _255  and  _258
REMARK  108  A    between atoms: _258  and  _259
REMARK  109  A    between atoms: _262  and  _264
REMARK  110  A    between atoms: _264  and  _265
REMARK  111  A    between atoms: _264  and  _267
REMARK  112  A    between atoms: _267  and  _268
REMARK  113  A    between atoms: _271  and  _273
REMARK  114  A    between atoms: _273  and  _274
REMARK  115  A    between atoms: _273  and  _276
REMARK  116  A    between atoms: _276  and  _277
REMARK  117  A    between atoms: _277  and  _278
REMARK  118  A    between atoms: _278  and  _279
REMARK  119  A    between atoms: _288  and  _290
REMARK  120  A    between atoms: _290  and  _291
REMARK  121  A    between atoms: _290  and  _293
REMARK  122  A    between atoms: _293  and  _294
REMARK  123  A    between atoms: _299  and  _301
REMARK  124  A    between atoms: _301  and  _302
REMARK  125  A    between atoms: _301  and  _304
REMARK  126  A    between atoms: _304  and  _305
REMARK  127  A    between atoms: _311  and  _313
REMARK  128  A    between atoms: _313  and  _314
REMARK  129  A    between atoms: _313  and  _316
REMARK  130  A    between atoms: _316  and  _317
REMARK  131  A    between atoms: _322  and  _324
REMARK  132  A    between atoms: _324  and  _325
REMARK  133  A    between atoms: _324  and  _327
REMARK  134  A    between atoms: _327  and  _328
REMARK  135  A    between atoms: _331  and  _333
REMARK  136  A    between atoms: _333  and  _334
REMARK  137  A    between atoms: _337  and  _339
REMARK  138  A    between atoms: _339  and  _340
REMARK  139  A    between atoms: _343  and  _345
REMARK  140  A    between atoms: _345  and  _346
REMARK  141  A    between atoms: _345  and  _348
REMARK  142  A    between atoms: _348  and  _349
REMARK  143  A    between atoms: _349  and  _350
REMARK  144  A    between atoms: _350  and  _351
REMARK  145  A    between atoms: _360  and  _362
REMARK  146  A    between atoms: _362  and  _363
REMARK  147  A    between atoms: _362  and  _365
REMARK  148  A    between atoms: _365  and  _366
REMARK  149  A    between atoms: _371  and  _373
REMARK  150  A    between atoms: _373  and  _374
REMARK  151  A    between atoms: _373  and  _376
REMARK  152  A    between atoms: _378  and  _380
REMARK  153  A    between atoms: _380  and  _381
REMARK  154  A    between atoms: _380  and  _383
REMARK  155  A    between atoms: _383  and  _384
REMARK  156  A    between atoms: _384  and  _385
REMARK  157  A    between atoms: _387  and  _389
REMARK  158  A    between atoms: _389  and  _390
REMARK  159  A    between atoms: _389  and  _392
REMARK  160  A    between atoms: _392  and  _393
REMARK  161  A    between atoms: _396  and  _398
REMARK  162  A    between atoms: _398  and  _399
REMARK  163  A    between atoms: _398  and  _401
REMARK  164  A    between atoms: _401  and  _402
REMARK  165  A    between atoms: _405  and  _407
REMARK  166  A    between atoms: _407  and  _408
REMARK  167  A    between atoms: _407  and  _410
REMARK  168  A    between atoms: _410  and  _411
REMARK  169  A    between atoms: _411  and  _412
REMARK  170  A    between atoms: _412  and  _413
REMARK  171  A    between atoms: _413  and  _414
REMARK  172  A    between atoms: _418  and  _420
REMARK  173  A    between atoms: _420  and  _421
REMARK  174  A    between atoms: _420  and  _423
REMARK  175  A    between atoms: _426  and  _428
REMARK  176  A    between atoms: _428  and  _429
REMARK  177  A    between atoms: _432  and  _434
REMARK  178  A    between atoms: _434  and  _435
REMARK  179  A    between atoms: _434  and  _437
REMARK  180  A    between atoms: _437  and  _438
REMARK  181  A    between atoms: _441  and  _443
REMARK  182  A    between atoms: _443  and  _444
REMARK  183  A    between atoms: _443  and  _446
REMARK  184  A    between atoms: _446  and  _447
REMARK  185  A    between atoms: _453  and  _455
REMARK  186  A    between atoms: _455  and  _456
REMARK  187  A    between atoms: _455  and  _458
REMARK  188  A    between atoms: _458  and  _459
REMARK  189  A    between atoms: _462  and  _464
REMARK  190  A    between atoms: _464  and  _465
REMARK  191  A    between atoms: _468  and  _470
REMARK  192  A    between atoms: _470  and  _471
REMARK  193  A    between atoms: _470  and  _473
REMARK  194  A    between atoms: _473  and  _474
REMARK  195  A    between atoms: _474  and  _475
REMARK  196  A    between atoms: _475  and  _476
REMARK  197  A    between atoms: _485  and  _487
REMARK  198  A    between atoms: _487  and  _488
REMARK  199  A    between atoms: _487  and  _490
REMARK  200  A    between atoms: _490  and  _491
REMARK  201  A    between atoms: _494  and  _496
REMARK  202  A    between atoms: _496  and  _497
REMARK  203  A    between atoms: _496  and  _499
REMARK  204  A    between atoms: _499  and  _500
REMARK  205  A    between atoms: _500  and  _501
REMARK  206  A    between atoms: _503  and  _505
REMARK  207  A    between atoms: _505  and  _506
REMARK  208  A    between atoms: _505  and  _508
REMARK  209  A    between atoms: _508  and  _509
REMARK  210  A    between atoms: _514  and  _515
REMARK  211  A    between atoms: _517  and  _519
REMARK  212  A    between atoms: _519  and  _520
REMARK  213  A    between atoms: _519  and  _522
REMARK  214  A    between atoms: _522  and  _523
REMARK  215  A    between atoms: _526  and  _528
REMARK  216  A    between atoms: _528  and  _529
REMARK  217  A    between atoms: _528  and  _531
REMARK  218  A    between atoms: _531  and  _532
REMARK  219  A    between atoms: _537  and  _538
REMARK                            x       y       z     vdW  Elec       q    Type
REMARK                         _______ _______ _______ _____ _____    ______ ____
ROOT
ATOM      1  O   HOH     1      29.361  88.871  10.754  0.00  0.00    +0.000 OA
ENDROOT
TORSDOF 0
REMARK  Name = ../refined-set-2016/4aoi/4aoi_pocket.pdb
REMARK  219 active torsions:
REMARK  status: ('A' for Active; 'I' for Inactive)
REMARK    1  A    between atoms: _1  and  _3
REMARK    2  A    between atoms: _3  and  _4
REMARK    3  A    between atoms: _3  and  _6
REMARK    4  A    between atoms: _9  and  _11
REMARK    5  A    between atoms: _11  and  _12
REMARK    6  A    between atoms: _11  and  _14
REMARK    7  A    between atoms: _14  and  _15
REMARK    8  A    between atoms: _18  and  _20
REMARK    9  A    between atoms: _20  and  _21
REMARK   10  A    between atoms: _23  and  _25
REMARK   11  A    between atoms: _25  and  _26
REMARK   12  A    between atoms: _25  and  _28
REMARK   13  A    between atoms: _28  and  _29
REMARK   14  A    between atoms: _29  and  _30
REMARK   15  A    between atoms: _30  and  _31
REMARK   16  A    between atoms: _40  and  _42
REMARK   17  A    between atoms: _42  and  _43
REMARK   18  A    between atoms: _45  and  _47
REMARK   19  A    between atoms: _47  and  _48
REMARK   20  A    between atoms: _47  and  _50
REMARK   21  A    between atoms: _52  and  _54
REMARK   22  A    between atoms: _54  and  _55
REMARK   23  A    between atoms: _54  and  _57
REMARK   24  A    between atoms: _60  and  _62
REMARK   25  A    between atoms: _62  and  _63
REMARK   26  A    between atoms: _62  and  _65
REMARK   27  A    between atoms: _65  and  _66
REMARK   28  A    between atoms: _71  and  _72
REMARK   29  A    between atoms: _74  and  _76
REMARK   30  A    between atoms: _76  and  _77
REMARK   31  A    between atoms: _76  and  _79
REMARK   32  A    between atoms: _79  and  _80
REMARK   33  A    between atoms: _85  and  _87
REMARK   34  A    between atoms: _87  and  _88
REMARK   35  A    between atoms: _90  and  _92
REMARK   36  A    between atoms: _92  and  _93
REMARK   37  A    between atoms: _92  and  _95
REMARK   38  A    between atoms: _95  and  _96
REMARK   39  A    between atoms: _101  and  _103
REMARK   40  A    between atoms: _103  and  _104
REMARK   41  A    between atoms: _103  and  _106
REMARK   42  A    between atoms: _108  and  _110
REMARK   43  A    between atoms: _110  and  _111
REMARK   44  A    between atoms: _114  and  _116
REMARK   45  A    between atoms: _116  and  _117
REMARK   46  A    between atoms: _116  and  _119
REMARK   47  A    between atoms: _122  and  _124
REMARK   48  A    between atoms: _124  and  _125
REMARK   49  A    between atoms: _124  and  _127
REMARK   50  A    between atoms: _127  and  _128
REMARK   51  A    between atoms: _128  and  _129
REMARK   52  A    between atoms: _129  and  _130
REMARK   53  A    between atoms: _130  and  _131
REMARK   54  A    between atoms: _135  and  _137
REMARK   55  A    between atoms: _137  and  _138
REMARK   56  A    between atoms: _137  and  _140
REMARK   57  A    between atoms: _140  and  _141
REMARK   58  A    between atoms: _143  and  _145
REMARK   59  A    between atoms: _145  and  _146
REMARK   60  A    between atoms: _145  and  _148
REMARK   61  A    between atoms: _148  and  _149
REMARK   62  A    between atoms: _149  and  _150
REMARK   63  A    between atoms: _152  and  _154
REMARK   64  A    between atoms: _154  and  _155
REMARK   65  A    between atoms: _154  and  _157
REMARK   66  A    between atoms: _157  and  _158
REMARK   67  A    between atoms: _161  and  _163
REMARK   68  A    between atoms: _163  and  _164
REMARK   69  A    between atoms: _163  and  _166
REMARK   70  A    between atoms: _166  and  _167
REMARK   71  A    between atoms: _169  and  _171
REMARK   72  A    between atoms: _171  and  _172
REMARK   73  A    between atoms: _171  and  _174
REMARK   74  A    between atoms: _177  and  _179
REMARK   75  A    between atoms: _179  and  _180
REMARK   76  A    between atoms: _179  and  _182
REMARK   77  A    between atoms: _185  and  _187
REMARK   78  A    between atoms: _187  and  _188
REMARK   79  A    between atoms: _187  and  _190
REMARK   80  A    between atoms: _190  and  _191
REMARK   81  A    between atoms: _195  and  _196
REMARK   82  A    between atoms: _201  and  _203
REMARK   83  A    between atoms: _203  and  _204
REMARK   84  A    between atoms: _203  and  _206
REMARK   85  A    between atoms: _206  and  _207
REMARK   86  A    between atoms: _212  and  _213
REMARK   87  A    between atoms: _215  and  _217
REMARK   88  A    between atoms: _217  and  _218
REMARK   89  A    between atoms: _217  and  _220
REMARK   90  A    between atoms: _220  and  _221
REMARK   91  A    between atoms: _221  and  _222
REMARK   92  A    between atoms: _224  and  _226
REMARK   93  A    between atoms: _226  and  _227
REMARK   94  A    between atoms: _226  and  _229
REMARK   95  A    between atoms: _229  and  _230
REMARK   96  A    between atoms: _230  and  _231
REMARK   97  A    between atoms: _231  and  _232
REMARK   98  A    between atoms: _232  and  _233
REMARK   99  A    between atoms: _237  and  _239
REMARK  100  A    between atoms: _239  and  _240
REMARK  101  A    between atoms: _239  and  _242
REMARK  102  A    between atoms: _242  and  _243
REMARK  103  A    between atoms: _248  and  _250
REMARK  104  A    between atoms: _250  and  _251
REMARK  105  A    between atoms: _253  and  _255
REMARK  106  A    between atoms: _255  and  _256
REMARK  107  A    between atoms: _255  and  _258
REMARK  108  A    between atoms: _258  and  _259
REMARK  109  A    between atoms: _262  and  _264
REMARK  110  A    between atoms: _264  and  _265
REMARK  111  A    between atoms: _264  and  _267
REMARK  112  A    between atoms: _267  and  _268
REMARK  113  A    between atoms: _271  and  _273
REMARK  114  A    between atoms: _273  and  _274
REMARK  115  A    between atoms: _273  and  _276
REMARK  116  A    between atoms: _276  and  _277
REMARK  117  A    between atoms: _277  and  _278
REMARK  118  A    between atoms: _278  and  _279
REMARK  119  A    between atoms: _288  and  _290
REMARK  120  A    between atoms: _290  and  _291
REMARK  121  A    between atoms: _290  and  _293
REMARK  122  A    between atoms: _293  and  _294
REMARK  123  A    between atoms: _299  and  _301
REMARK  124  A    between atoms: _301  and  _302
REMARK  125  A    between atoms: _301  and  _304
REMARK  126  A    between atoms: _304  and  _305
REMARK  127  A    between atoms: _311  and  _313
REMARK  128  A    between atoms: _313  and  _314
REMARK  129  A    between atoms: _313  and  _316
REMARK  130  A    between atoms: _316  and  _317
REMARK  131  A    between atoms: _322  and  _324
REMARK  132  A    between atoms: _324  and  _325
REMARK  133  A    between atoms: _324  and  _327
REMARK  134  A    between atoms: _327  and  _328
REMARK  135  A    between atoms: _331  and  _333
REMARK  136  A    between atoms: _333  and  _334
REMARK  137  A    between atoms: _337  and  _339
REMARK  138  A    between atoms: _339  and  _340
REMARK  139  A    between atoms: _343  and  _345
REMARK  140  A    between atoms: _345  and  _346
REMARK  141  A    between atoms: _345  and  _348
REMARK  142  A    between atoms: _348  and  _349
REMARK  143  A    between atoms: _349  and  _350
REMARK  144  A    between atoms: _350  and  _351
REMARK  145  A    between atoms: _360  and  _362
REMARK  146  A    between atoms: _362  and  _363
REMARK  147  A    between atoms: _362  and  _365
REMARK  148  A    between atoms: _365  and  _366
REMARK  149  A    between atoms: _371  and  _373
REMARK  150  A    between atoms: _373  and  _374
REMARK  151  A    between atoms: _373  and  _376
REMARK  152  A    between atoms: _378  and  _380
REMARK  153  A    between atoms: _380  and  _381
REMARK  154  A    between atoms: _380  and  _383
REMARK  155  A    between atoms: _383  and  _384
REMARK  156  A    between atoms: _384  and  _385
REMARK  157  A    between atoms: _387  and  _389
REMARK  158  A    between atoms: _389  and  _390
REMARK  159  A    between atoms: _389  and  _392
REMARK  160  A    between atoms: _392  and  _393
REMARK  161  A    between atoms: _396  and  _398
REMARK  162  A    between atoms: _398  and  _399
REMARK  163  A    between atoms: _398  and  _401
REMARK  164  A    between atoms: _401  and  _402
REMARK  165  A    between atoms: _405  and  _407
REMARK  166  A    between atoms: _407  and  _408
REMARK  167  A    between atoms: _407  and  _410
REMARK  168  A    between atoms: _410  and  _411
REMARK  169  A    between atoms: _411  and  _412
REMARK  170  A    between atoms: _412  and  _413
REMARK  171  A    between atoms: _413  and  _414
REMARK  172  A    between atoms: _418  and  _420
REMARK  173  A    between atoms: _420  and  _421
REMARK  174  A    between atoms: _420  and  _423
REMARK  175  A    between atoms: _426  and  _428
REMARK  176  A    between atoms: _428  and  _429
REMARK  177  A    between atoms: _432  and  _434
REMARK  178  A    between atoms: _434  and  _435
REMARK  179  A    between atoms: _434  and  _437
REMARK  180  A    between atoms: _437  and  _438
REMARK  181  A    between atoms: _441  and  _443
REMARK  182  A    between atoms: _443  and  _444
REMARK  183  A    between atoms: _443  and  _446
REMARK  184  A    between atoms: _446  and  _447
REMARK  185  A    between atoms: _453  and  _455
REMARK  186  A    between atoms: _455  and  _456
REMARK  187  A    between atoms: _455  and  _458
REMARK  188  A    between atoms: _458  and  _459
REMARK  189  A    between atoms: _462  and  _464
REMARK  190  A    between atoms: _464  and  _465
REMARK  191  A    between atoms: _468  and  _470
REMARK  192  A    between atoms: _470  and  _471
REMARK  193  A    between atoms: _470  and  _473
REMARK  194  A    between atoms: _473  and  _474
REMARK  195  A    between atoms: _474  and  _475
REMARK  196  A    between atoms: _475  and  _476
REMARK  197  A    between atoms: _485  and  _487
REMARK  198  A    between atoms: _487  and  _488
REMARK  199  A    between atoms: _487  and  _490
REMARK  200  A    between atoms: _490  and  _491
REMARK  201  A    between atoms: _494  and  _496
REMARK  202  A    between atoms: _496  and  _497
REMARK  203  A    between atoms: _496  and  _499
REMARK  204  A    between atoms: _499  and  _500
REMARK  205  A    between atoms: _500  and  _501
REMARK  206  A    between atoms: _503  and  _505
REMARK  207  A    between atoms: _505  and  _506
REMARK  208  A    between atoms: _505  and  _508
REMARK  209  A    between atoms: _508  and  _509
REMARK  210  A    between atoms: _514  and  _515
REMARK  211  A    between atoms: _517  and  _519
REMARK  212  A    between atoms: _519  and  _520
REMARK  213  A    between atoms: _519  and  _522
REMARK  214  A    between atoms: _522  and  _523
REMARK  215  A    between atoms: _526  and  _528
REMARK  216  A    between atoms: _528  and  _529
REMARK  217  A    between atoms: _528  and  _531
REMARK  218  A    between atoms: _531  and  _532
REMARK  219  A    between atoms: _537  and  _538
REMARK                            x       y       z     vdW  Elec       q    Type
REMARK                         _______ _______ _______ _____ _____    ______ ____
ROOT
ATOM      1  O   HOH     1      28.051  89.345   1.229  0.00  0.00    +0.000 OA
ENDROOT
TORSDOF 0
REMARK  Name = ../refined-set-2016/4aoi/4aoi_pocket.pdb
REMARK  219 active torsions:
REMARK  status: ('A' for Active; 'I' for Inactive)
REMARK    1  A    between atoms: _1  and  _3
REMARK    2  A    between atoms: _3  and  _4
REMARK    3  A    between atoms: _3  and  _6
REMARK    4  A    between atoms: _9  and  _11
REMARK    5  A    between atoms: _11  and  _12
REMARK    6  A    between atoms: _11  and  _14
REMARK    7  A    between atoms: _14  and  _15
REMARK    8  A    between atoms: _18  and  _20
REMARK    9  A    between atoms: _20  and  _21
REMARK   10  A    between atoms: _23  and  _25
REMARK   11  A    between atoms: _25  and  _26
REMARK   12  A    between atoms: _25  and  _28
REMARK   13  A    between atoms: _28  and  _29
REMARK   14  A    between atoms: _29  and  _30
REMARK   15  A    between atoms: _30  and  _31
REMARK   16  A    between atoms: _40  and  _42
REMARK   17  A    between atoms: _42  and  _43
REMARK   18  A    between atoms: _45  and  _47
REMARK   19  A    between atoms: _47  and  _48
REMARK   20  A    between atoms: _47  and  _50
REMARK   21  A    between atoms: _52  and  _54
REMARK   22  A    between atoms: _54  and  _55
REMARK   23  A    between atoms: _54  and  _57
REMARK   24  A    between atoms: _60  and  _62
REMARK   25  A    between atoms: _62  and  _63
REMARK   26  A    between atoms: _62  and  _65
REMARK   27  A    between atoms: _65  and  _66
REMARK   28  A    between atoms: _71  and  _72
REMARK   29  A    between atoms: _74  and  _76
REMARK   30  A    between atoms: _76  and  _77
REMARK   31  A    between atoms: _76  and  _79
REMARK   32  A    between atoms: _79  and  _80
REMARK   33  A    between atoms: _85  and  _87
REMARK   34  A    between atoms: _87  and  _88
REMARK   35  A    between atoms: _90  and  _92
REMARK   36  A    between atoms: _92  and  _93
REMARK   37  A    between atoms: _92  and  _95
REMARK   38  A    between atoms: _95  and  _96
REMARK   39  A    between atoms: _101  and  _103
REMARK   40  A    between atoms: _103  and  _104
REMARK   41  A    between atoms: _103  and  _106
REMARK   42  A    between atoms: _108  and  _110
REMARK   43  A    between atoms: _110  and  _111
REMARK   44  A    between atoms: _114  and  _116
REMARK   45  A    between atoms: _116  and  _117
REMARK   46  A    between atoms: _116  and  _119
REMARK   47  A    between atoms: _122  and  _124
REMARK   48  A    between atoms: _124  and  _125
REMARK   49  A    between atoms: _124  and  _127
REMARK   50  A    between atoms: _127  and  _128
REMARK   51  A    between atoms: _128  and  _129
REMARK   52  A    between atoms: _129  and  _130
REMARK   53  A    between atoms: _130  and  _131
REMARK   54  A    between atoms: _135  and  _137
REMARK   55  A    between atoms: _137  and  _138
REMARK   56  A    between atoms: _137  and  _140
REMARK   57  A    between atoms: _140  and  _141
REMARK   58  A    between atoms: _143  and  _145
REMARK   59  A    between atoms: _145  and  _146
REMARK   60  A    between atoms: _145  and  _148
REMARK   61  A    between atoms: _148  and  _149
REMARK   62  A    between atoms: _149  and  _150
REMARK   63  A    between atoms: _152  and  _154
REMARK   64  A    between atoms: _154  and  _155
REMARK   65  A    between atoms: _154  and  _157
REMARK   66  A    between atoms: _157  and  _158
REMARK   67  A    between atoms: _161  and  _163
REMARK   68  A    between atoms: _163  and  _164
REMARK   69  A    between atoms: _163  and  _166
REMARK   70  A    between atoms: _166  and  _167
REMARK   71  A    between atoms: _169  and  _171
REMARK   72  A    between atoms: _171  and  _172
REMARK   73  A    between atoms: _171  and  _174
REMARK   74  A    between atoms: _177  and  _179
REMARK   75  A    between atoms: _179  and  _180
REMARK   76  A    between atoms: _179  and  _182
REMARK   77  A    between atoms: _185  and  _187
REMARK   78  A    between atoms: _187  and  _188
REMARK   79  A    between atoms: _187  and  _190
REMARK   80  A    between atoms: _190  and  _191
REMARK   81  A    between atoms: _195  and  _196
REMARK   82  A    between atoms: _201  and  _203
REMARK   83  A    between atoms: _203  and  _204
REMARK   84  A    between atoms: _203  and  _206
REMARK   85  A    between atoms: _206  and  _207
REMARK   86  A    between atoms: _212  and  _213
REMARK   87  A    between atoms: _215  and  _217
REMARK   88  A    between atoms: _217  and  _218
REMARK   89  A    between atoms: _217  and  _220
REMARK   90  A    between atoms: _220  and  _221
REMARK   91  A    between atoms: _221  and  _222
REMARK   92  A    between atoms: _224  and  _226
REMARK   93  A    between atoms: _226  and  _227
REMARK   94  A    between atoms: _226  and  _229
REMARK   95  A    between atoms: _229  and  _230
REMARK   96  A    between atoms: _230  and  _231
REMARK   97  A    between atoms: _231  and  _232
REMARK   98  A    between atoms: _232  and  _233
REMARK   99  A    between atoms: _237  and  _239
REMARK  100  A    between atoms: _239  and  _240
REMARK  101  A    between atoms: _239  and  _242
REMARK  102  A    between atoms: _242  and  _243
REMARK  103  A    between atoms: _248  and  _250
REMARK  104  A    between atoms: _250  and  _251
REMARK  105  A    between atoms: _253  and  _255
REMARK  106  A    between atoms: _255  and  _256
REMARK  107  A    between atoms: _255  and  _258
REMARK  108  A    between atoms: _258  and  _259
REMARK  109  A    between atoms: _262  and  _264
REMARK  110  A    between atoms: _264  and  _265
REMARK  111  A    between atoms: _264  and  _267
REMARK  112  A    between atoms: _267  and  _268
REMARK  113  A    between atoms: _271  and  _273
REMARK  114  A    between atoms: _273  and  _274
REMARK  115  A    between atoms: _273  and  _276
REMARK  116  A    between atoms: _276  and  _277
REMARK  117  A    between atoms: _277  and  _278
REMARK  118  A    between atoms: _278  and  _279
REMARK  119  A    between atoms: _288  and  _290
REMARK  120  A    between atoms: _290  and  _291
REMARK  121  A    between atoms: _290  and  _293
REMARK  122  A    between atoms: _293  and  _294
REMARK  123  A    between atoms: _299  and  _301
REMARK  124  A    between atoms: _301  and  _302
REMARK  125  A    between atoms: _301  and  _304
REMARK  126  A    between atoms: _304  and  _305
REMARK  127  A    between atoms: _311  and  _313
REMARK  128  A    between atoms: _313  and  _314
REMARK  129  A    between atoms: _313  and  _316
REMARK  130  A    between atoms: _316  and  _317
REMARK  131  A    between atoms: _322  and  _324
REMARK  132  A    between atoms: _324  and  _325
REMARK  133  A    between atoms: _324  and  _327
REMARK  134  A    between atoms: _327  and  _328
REMARK  135  A    between atoms: _331  and  _333
REMARK  136  A    between atoms: _333  and  _334
REMARK  137  A    between atoms: _337  and  _339
REMARK  138  A    between atoms: _339  and  _340
REMARK  139  A    between atoms: _343  and  _345
REMARK  140  A    between atoms: _345  and  _346
REMARK  141  A    between atoms: _345  and  _348
REMARK  142  A    between atoms: _348  and  _349
REMARK  143  A    between atoms: _349  and  _350
REMARK  144  A    between atoms: _350  and  _351
REMARK  145  A    between atoms: _360  and  _362
REMARK  146  A    between atoms: _362  and  _363
REMARK  147  A    between atoms: _362  and  _365
REMARK  148  A    between atoms: _365  and  _366
REMARK  149  A    between atoms: _371  and  _373
REMARK  150  A    between atoms: _373  and  _374
REMARK  151  A    between atoms: _373  and  _376
REMARK  152  A    between atoms: _378  and  _380
REMARK  153  A    between atoms: _380  and  _381
REMARK  154  A    between atoms: _380  and  _383
REMARK  155  A    between atoms: _383  and  _384
REMARK  156  A    between atoms: _384  and  _385
REMARK  157  A    between atoms: _387  and  _389
REMARK  158  A    between atoms: _389  and  _390
REMARK  159  A    between atoms: _389  and  _392
REMARK  160  A    between atoms: _392  and  _393
REMARK  161  A    between atoms: _396  and  _398
REMARK  162  A    between atoms: _398  and  _399
REMARK  163  A    between atoms: _398  and  _401
REMARK  164  A    between atoms: _401  and  _402
REMARK  165  A    between atoms: _405  and  _407
REMARK  166  A    between atoms: _407  and  _408
REMARK  167  A    between atoms: _407  and  _410
REMARK  168  A    between atoms: _410  and  _411
REMARK  169  A    between atoms: _411  and  _412
REMARK  170  A    between atoms: _412  and  _413
REMARK  171  A    between atoms: _413  and  _414
REMARK  172  A    between atoms: _418  and  _420
REMARK  173  A    between atoms: _420  and  _421
REMARK  174  A    between atoms: _420  and  _423
REMARK  175  A    between atoms: _426  and  _428
REMARK  176  A    between atoms: _428  and  _429
REMARK  177  A    between atoms: _432  and  _434
REMARK  178  A    between atoms: _434  and  _435
REMARK  179  A    between atoms: _434  and  _437
REMARK  180  A    between atoms: _437  and  _438
REMARK  181  A    between atoms: _441  and  _443
REMARK  182  A    between atoms: _443  and  _444
REMARK  183  A    between atoms: _443  and  _446
REMARK  184  A    between atoms: _446  and  _447
REMARK  185  A    between atoms: _453  and  _455
REMARK  186  A    between atoms: _455  and  _456
REMARK  187  A    between atoms: _455  and  _458
REMARK  188  A    between atoms: _458  and  _459
REMARK  189  A    between atoms: _462  and  _464
REMARK  190  A    between atoms: _464  and  _465
REMARK  191  A    between atoms: _468  and  _470
REMARK  192  A    between atoms: _470  and  _471
REMARK  193  A    between atoms: _470  and  _473
REMARK  194  A    between atoms: _473  and  _474
REMARK  195  A    between atoms: _474  and  _475
REMARK  196  A    between atoms: _475  and  _476
REMARK  197  A    between atoms: _485  and  _487
REMARK  198  A    between atoms: _487  and  _488
REMARK  199  A    between atoms: _487  and  _490
REMARK  200  A    between atoms: _490  and  _491
REMARK  201  A    between atoms: _494  and  _496
REMARK  202  A    between atoms: _496  and  _497
REMARK  203  A    between atoms: _496  and  _499
REMARK  204  A    between atoms: _499  and  _500
REMARK  205  A    between atoms: _500  and  _501
REMARK  206  A    between atoms: _503  and  _505
REMARK  207  A    between atoms: _505  and  _506
REMARK  208  A    between atoms: _505  and  _508
REMARK  209  A    between atoms: _508  and  _509
REMARK  210  A    between atoms: _514  and  _515
REMARK  211  A    between atoms: _517  and  _519
REMARK  212  A    between atoms: _519  and  _520
REMARK  213  A    between atoms: _519  and  _522
REMARK  214  A    between atoms: _522  and  _523
REMARK  215  A    between atoms: _526  and  _528
REMARK  216  A    between atoms: _528  and  _529
REMARK  217  A    between atoms: _528  and  _531
REMARK  218  A    between atoms: _531  and  _532
REMARK  219  A    between atoms: _537  and  _538
REMARK                            x       y       z     vdW  Elec       q    Type
REMARK                         _______ _______ _______ _____ _____    ______ ____
ROOT
ATOM      1  O   HOH     1      13.129  88.518   8.956  0.00  0.00    +0.000 OA
ENDROOT
TORSDOF 0
REMARK  Name = ../refined-set-2016/4aoi/4aoi_pocket.pdb
REMARK  219 active torsions:
REMARK  status: ('A' for Active; 'I' for Inactive)
REMARK    1  A    between atoms: _1  and  _3
REMARK    2  A    between atoms: _3  and  _4
REMARK    3  A    between atoms: _3  and  _6
REMARK    4  A    between atoms: _9  and  _11
REMARK    5  A    between atoms: _11  and  _12
REMARK    6  A    between atoms: _11  and  _14
REMARK    7  A    between atoms: _14  and  _15
REMARK    8  A    between atoms: _18  and  _20
REMARK    9  A    between atoms: _20  and  _21
REMARK   10  A    between atoms: _23  and  _25
REMARK   11  A    between atoms: _25  and  _26
REMARK   12  A    between atoms: _25  and  _28
REMARK   13  A    between atoms: _28  and  _29
REMARK   14  A    between atoms: _29  and  _30
REMARK   15  A    between atoms: _30  and  _31
REMARK   16  A    between atoms: _40  and  _42
REMARK   17  A    between atoms: _42  and  _43
REMARK   18  A    between atoms: _45  and  _47
REMARK   19  A    between atoms: _47  and  _48
REMARK   20  A    between atoms: _47  and  _50
REMARK   21  A    between atoms: _52  and  _54
REMARK   22  A    between atoms: _54  and  _55
REMARK   23  A    between atoms: _54  and  _57
REMARK   24  A    between atoms: _60  and  _62
REMARK   25  A    between atoms: _62  and  _63
REMARK   26  A    between atoms: _62  and  _65
REMARK   27  A    between atoms: _65  and  _66
REMARK   28  A    between atoms: _71  and  _72
REMARK   29  A    between atoms: _74  and  _76
REMARK   30  A    between atoms: _76  and  _77
REMARK   31  A    between atoms: _76  and  _79
REMARK   32  A    between atoms: _79  and  _80
REMARK   33  A    between atoms: _85  and  _87
REMARK   34  A    between atoms: _87  and  _88
REMARK   35  A    between atoms: _90  and  _92
REMARK   36  A    between atoms: _92  and  _93
REMARK   37  A    between atoms: _92  and  _95
REMARK   38  A    between atoms: _95  and  _96
REMARK   39  A    between atoms: _101  and  _103
REMARK   40  A    between atoms: _103  and  _104
REMARK   41  A    between atoms: _103  and  _106
REMARK   42  A    between atoms: _108  and  _110
REMARK   43  A    between atoms: _110  and  _111
REMARK   44  A    between atoms: _114  and  _116
REMARK   45  A    between atoms: _116  and  _117
REMARK   46  A    between atoms: _116  and  _119
REMARK   47  A    between atoms: _122  and  _124
REMARK   48  A    between atoms: _124  and  _125
REMARK   49  A    between atoms: _124  and  _127
REMARK   50  A    between atoms: _127  and  _128
REMARK   51  A    between atoms: _128  and  _129
REMARK   52  A    between atoms: _129  and  _130
REMARK   53  A    between atoms: _130  and  _131
REMARK   54  A    between atoms: _135  and  _137
REMARK   55  A    between atoms: _137  and  _138
REMARK   56  A    between atoms: _137  and  _140
REMARK   57  A    between atoms: _140  and  _141
REMARK   58  A    between atoms: _143  and  _145
REMARK   59  A    between atoms: _145  and  _146
REMARK   60  A    between atoms: _145  and  _148
REMARK   61  A    between atoms: _148  and  _149
REMARK   62  A    between atoms: _149  and  _150
REMARK   63  A    between atoms: _152  and  _154
REMARK   64  A    between atoms: _154  and  _155
REMARK   65  A    between atoms: _154  and  _157
REMARK   66  A    between atoms: _157  and  _158
REMARK   67  A    between atoms: _161  and  _163
REMARK   68  A    between atoms: _163  and  _164
REMARK   69  A    between atoms: _163  and  _166
REMARK   70  A    between atoms: _166  and  _167
REMARK   71  A    between atoms: _169  and  _171
REMARK   72  A    between atoms: _171  and  _172
REMARK   73  A    between atoms: _171  and  _174
REMARK   74  A    between atoms: _177  and  _179
REMARK   75  A    between atoms: _179  and  _180
REMARK   76  A    between atoms: _179  and  _182
REMARK   77  A    between atoms: _185  and  _187
REMARK   78  A    between atoms: _187  and  _188
REMARK   79  A    between atoms: _187  and  _190
REMARK   80  A    between atoms: _190  and  _191
REMARK   81  A    between atoms: _195  and  _196
REMARK   82  A    between atoms: _201  and  _203
REMARK   83  A    between atoms: _203  and  _204
REMARK   84  A    between atoms: _203  and  _206
REMARK   85  A    between atoms: _206  and  _207
REMARK   86  A    between atoms: _212  and  _213
REMARK   87  A    between atoms: _215  and  _217
REMARK   88  A    between atoms: _217  and  _218
REMARK   89  A    between atoms: _217  and  _220
REMARK   90  A    between atoms: _220  and  _221
REMARK   91  A    between atoms: _221  and  _222
REMARK   92  A    between atoms: _224  and  _226
REMARK   93  A    between atoms: _226  and  _227
REMARK   94  A    between atoms: _226  and  _229
REMARK   95  A    between atoms: _229  and  _230
REMARK   96  A    between atoms: _230  and  _231
REMARK   97  A    between atoms: _231  and  _232
REMARK   98  A    between atoms: _232  and  _233
REMARK   99  A    between atoms: _237  and  _239
REMARK  100  A    between atoms: _239  and  _240
REMARK  101  A    between atoms: _239  and  _242
REMARK  102  A    between atoms: _242  and  _243
REMARK  103  A    between atoms: _248  and  _250
REMARK  104  A    between atoms: _250  and  _251
REMARK  105  A    between atoms: _253  and  _255
REMARK  106  A    between atoms: _255  and  _256
REMARK  107  A    between atoms: _255  and  _258
REMARK  108  A    between atoms: _258  and  _259
REMARK  109  A    between atoms: _262  and  _264
REMARK  110  A    between atoms: _264  and  _265
REMARK  111  A    between atoms: _264  and  _267
REMARK  112  A    between atoms: _267  and  _268
REMARK  113  A    between atoms: _271  and  _273
REMARK  114  A    between atoms: _273  and  _274
REMARK  115  A    between atoms: _273  and  _276
REMARK  116  A    between atoms: _276  and  _277
REMARK  117  A    between atoms: _277  and  _278
REMARK  118  A    between atoms: _278  and  _279
REMARK  119  A    between atoms: _288  and  _290
REMARK  120  A    between atoms: _290  and  _291
REMARK  121  A    between atoms: _290  and  _293
REMARK  122  A    between atoms: _293  and  _294
REMARK  123  A    between atoms: _299  and  _301
REMARK  124  A    between atoms: _301  and  _302
REMARK  125  A    between atoms: _301  and  _304
REMARK  126  A    between atoms: _304  and  _305
REMARK  127  A    between atoms: _311  and  _313
REMARK  128  A    between atoms: _313  and  _314
REMARK  129  A    between atoms: _313  and  _316
REMARK  130  A    between atoms: _316  and  _317
REMARK  131  A    between atoms: _322  and  _324
REMARK  132  A    between atoms: _324  and  _325
REMARK  133  A    between atoms: _324  and  _327
REMARK  134  A    between atoms: _327  and  _328
REMARK  135  A    between atoms: _331  and  _333
REMARK  136  A    between atoms: _333  and  _334
REMARK  137  A    between atoms: _337  and  _339
REMARK  138  A    between atoms: _339  and  _340
REMARK  139  A    between atoms: _343  and  _345
REMARK  140  A    between atoms: _345  and  _346
REMARK  141  A    between atoms: _345  and  _348
REMARK  142  A    between atoms: _348  and  _349
REMARK  143  A    between atoms: _349  and  _350
REMARK  144  A    between atoms: _350  and  _351
REMARK  145  A    between atoms: _360  and  _362
REMARK  146  A    between atoms: _362  and  _363
REMARK  147  A    between atoms: _362  and  _365
REMARK  148  A    between atoms: _365  and  _366
REMARK  149  A    between atoms: _371  and  _373
REMARK  150  A    between atoms: _373  and  _374
REMARK  151  A    between atoms: _373  and  _376
REMARK  152  A    between atoms: _378  and  _380
REMARK  153  A    between atoms: _380  and  _381
REMARK  154  A    between atoms: _380  and  _383
REMARK  155  A    between atoms: _383  and  _384
REMARK  156  A    between atoms: _384  and  _385
REMARK  157  A    between atoms: _387  and  _389
REMARK  158  A    between atoms: _389  and  _390
REMARK  159  A    between atoms: _389  and  _392
REMARK  160  A    between atoms: _392  and  _393
REMARK  161  A    between atoms: _396  and  _398
REMARK  162  A    between atoms: _398  and  _399
REMARK  163  A    between atoms: _398  and  _401
REMARK  164  A    between atoms: _401  and  _402
REMARK  165  A    between atoms: _405  and  _407
REMARK  166  A    between atoms: _407  and  _408
REMARK  167  A    between atoms: _407  and  _410
REMARK  168  A    between atoms: _410  and  _411
REMARK  169  A    between atoms: _411  and  _412
REMARK  170  A    between atoms: _412  and  _413
REMARK  171  A    between atoms: _413  and  _414
REMARK  172  A    between atoms: _418  and  _420
REMARK  173  A    between atoms: _420  and  _421
REMARK  174  A    between atoms: _420  and  _423
REMARK  175  A    between atoms: _426  and  _428
REMARK  176  A    between atoms: _428  and  _429
REMARK  177  A    between atoms: _432  and  _434
REMARK  178  A    between atoms: _434  and  _435
REMARK  179  A    between atoms: _434  and  _437
REMARK  180  A    between atoms: _437  and  _438
REMARK  181  A    between atoms: _441  and  _443
REMARK  182  A    between atoms: _443  and  _444
REMARK  183  A    between atoms: _443  and  _446
REMARK  184  A    between atoms: _446  and  _447
REMARK  185  A    between atoms: _453  and  _455
REMARK  186  A    between atoms: _455  and  _456
REMARK  187  A    between atoms: _455  and  _458
REMARK  188  A    between atoms: _458  and  _459
REMARK  189  A    between atoms: _462  and  _464
REMARK  190  A    between atoms: _464  and  _465
REMARK  191  A    between atoms: _468  and  _470
REMARK  192  A    between atoms: _470  and  _471
REMARK  193  A    between atoms: _470  and  _473
REMARK  194  A    between atoms: _473  and  _474
REMARK  195  A    between atoms: _474  and  _475
REMARK  196  A    between atoms: _475  and  _476
REMARK  197  A    between atoms: _485  and  _487
REMARK  198  A    between atoms: _487  and  _488
REMARK  199  A    between atoms: _487  and  _490
REMARK  200  A    between atoms: _490  and  _491
REMARK  201  A    between atoms: _494  and  _496
REMARK  202  A    between atoms: _496  and  _497
REMARK  203  A    between atoms: _496  and  _499
REMARK  204  A    between atoms: _499  and  _500
REMARK  205  A    between atoms: _500  and  _501
REMARK  206  A    between atoms: _503  and  _505
REMARK  207  A    between atoms: _505  and  _506
REMARK  208  A    between atoms: _505  and  _508
REMARK  209  A    between atoms: _508  and  _509
REMARK  210  A    between atoms: _514  and  _515
REMARK  211  A    between atoms: _517  and  _519
REMARK  212  A    between atoms: _519  and  _520
REMARK  213  A    between atoms: _519  and  _522
REMARK  214  A    between atoms: _522  and  _523
REMARK  215  A    between atoms: _526  and  _528
REMARK  216  A    between atoms: _528  and  _529
REMARK  217  A    between atoms: _528  and  _531
REMARK  218  A    between atoms: _531  and  _532
REMARK  219  A    between atoms: _537  and  _538
REMARK                            x       y       z     vdW  Elec       q    Type
REMARK                         _______ _______ _______ _____ _____    ______ ____
ROOT
ATOM      1  O   HOH     1      30.770  83.493   8.009  0.00  0.00    +0.000 OA
ENDROOT
TORSDOF 0
REMARK  Name = ../refined-set-2016/4aoi/4aoi_pocket.pdb
REMARK  219 active torsions:
REMARK  status: ('A' for Active; 'I' for Inactive)
REMARK    1  A    between atoms: _1  and  _3
REMARK    2  A    between atoms: _3  and  _4
REMARK    3  A    between atoms: _3  and  _6
REMARK    4  A    between atoms: _9  and  _11
REMARK    5  A    between atoms: _11  and  _12
REMARK    6  A    between atoms: _11  and  _14
REMARK    7  A    between atoms: _14  and  _15
REMARK    8  A    between atoms: _18  and  _20
REMARK    9  A    between atoms: _20  and  _21
REMARK   10  A    between atoms: _23  and  _25
REMARK   11  A    between atoms: _25  and  _26
REMARK   12  A    between atoms: _25  and  _28
REMARK   13  A    between atoms: _28  and  _29
REMARK   14  A    between atoms: _29  and  _30
REMARK   15  A    between atoms: _30  and  _31
REMARK   16  A    between atoms: _40  and  _42
REMARK   17  A    between atoms: _42  and  _43
REMARK   18  A    between atoms: _45  and  _47
REMARK   19  A    between atoms: _47  and  _48
REMARK   20  A    between atoms: _47  and  _50
REMARK   21  A    between atoms: _52  and  _54
REMARK   22  A    between atoms: _54  and  _55
REMARK   23  A    between atoms: _54  and  _57
REMARK   24  A    between atoms: _60  and  _62
REMARK   25  A    between atoms: _62  and  _63
REMARK   26  A    between atoms: _62  and  _65
REMARK   27  A    between atoms: _65  and  _66
REMARK   28  A    between atoms: _71  and  _72
REMARK   29  A    between atoms: _74  and  _76
REMARK   30  A    between atoms: _76  and  _77
REMARK   31  A    between atoms: _76  and  _79
REMARK   32  A    between atoms: _79  and  _80
REMARK   33  A    between atoms: _85  and  _87
REMARK   34  A    between atoms: _87  and  _88
REMARK   35  A    between atoms: _90  and  _92
REMARK   36  A    between atoms: _92  and  _93
REMARK   37  A    between atoms: _92  and  _95
REMARK   38  A    between atoms: _95  and  _96
REMARK   39  A    between atoms: _101  and  _103
REMARK   40  A    between atoms: _103  and  _104
REMARK   41  A    between atoms: _103  and  _106
REMARK   42  A    between atoms: _108  and  _110
REMARK   43  A    between atoms: _110  and  _111
REMARK   44  A    between atoms: _114  and  _116
REMARK   45  A    between atoms: _116  and  _117
REMARK   46  A    between atoms: _116  and  _119
REMARK   47  A    between atoms: _122  and  _124
REMARK   48  A    between atoms: _124  and  _125
REMARK   49  A    between atoms: _124  and  _127
REMARK   50  A    between atoms: _127  and  _128
REMARK   51  A    between atoms: _128  and  _129
REMARK   52  A    between atoms: _129  and  _130
REMARK   53  A    between atoms: _130  and  _131
REMARK   54  A    between atoms: _135  and  _137
REMARK   55  A    between atoms: _137  and  _138
REMARK   56  A    between atoms: _137  and  _140
REMARK   57  A    between atoms: _140  and  _141
REMARK   58  A    between atoms: _143  and  _145
REMARK   59  A    between atoms: _145  and  _146
REMARK   60  A    between atoms: _145  and  _148
REMARK   61  A    between atoms: _148  and  _149
REMARK   62  A    between atoms: _149  and  _150
REMARK   63  A    between atoms: _152  and  _154
REMARK   64  A    between atoms: _154  and  _155
REMARK   65  A    between atoms: _154  and  _157
REMARK   66  A    between atoms: _157  and  _158
REMARK   67  A    between atoms: _161  and  _163
REMARK   68  A    between atoms: _163  and  _164
REMARK   69  A    between atoms: _163  and  _166
REMARK   70  A    between atoms: _166  and  _167
REMARK   71  A    between atoms: _169  and  _171
REMARK   72  A    between atoms: _171  and  _172
REMARK   73  A    between atoms: _171  and  _174
REMARK   74  A    between atoms: _177  and  _179
REMARK   75  A    between atoms: _179  and  _180
REMARK   76  A    between atoms: _179  and  _182
REMARK   77  A    between atoms: _185  and  _187
REMARK   78  A    between atoms: _187  and  _188
REMARK   79  A    between atoms: _187  and  _190
REMARK   80  A    between atoms: _190  and  _191
REMARK   81  A    between atoms: _195  and  _196
REMARK   82  A    between atoms: _201  and  _203
REMARK   83  A    between atoms: _203  and  _204
REMARK   84  A    between atoms: _203  and  _206
REMARK   85  A    between atoms: _206  and  _207
REMARK   86  A    between atoms: _212  and  _213
REMARK   87  A    between atoms: _215  and  _217
REMARK   88  A    between atoms: _217  and  _218
REMARK   89  A    between atoms: _217  and  _220
REMARK   90  A    between atoms: _220  and  _221
REMARK   91  A    between atoms: _221  and  _222
REMARK   92  A    between atoms: _224  and  _226
REMARK   93  A    between atoms: _226  and  _227
REMARK   94  A    between atoms: _226  and  _229
REMARK   95  A    between atoms: _229  and  _230
REMARK   96  A    between atoms: _230  and  _231
REMARK   97  A    between atoms: _231  and  _232
REMARK   98  A    between atoms: _232  and  _233
REMARK   99  A    between atoms: _237  and  _239
REMARK  100  A    between atoms: _239  and  _240
REMARK  101  A    between atoms: _239  and  _242
REMARK  102  A    between atoms: _242  and  _243
REMARK  103  A    between atoms: _248  and  _250
REMARK  104  A    between atoms: _250  and  _251
REMARK  105  A    between atoms: _253  and  _255
REMARK  106  A    between atoms: _255  and  _256
REMARK  107  A    between atoms: _255  and  _258
REMARK  108  A    between atoms: _258  and  _259
REMARK  109  A    between atoms: _262  and  _264
REMARK  110  A    between atoms: _264  and  _265
REMARK  111  A    between atoms: _264  and  _267
REMARK  112  A    between atoms: _267  and  _268
REMARK  113  A    between atoms: _271  and  _273
REMARK  114  A    between atoms: _273  and  _274
REMARK  115  A    between atoms: _273  and  _276
REMARK  116  A    between atoms: _276  and  _277
REMARK  117  A    between atoms: _277  and  _278
REMARK  118  A    between atoms: _278  and  _279
REMARK  119  A    between atoms: _288  and  _290
REMARK  120  A    between atoms: _290  and  _291
REMARK  121  A    between atoms: _290  and  _293
REMARK  122  A    between atoms: _293  and  _294
REMARK  123  A    between atoms: _299  and  _301
REMARK  124  A    between atoms: _301  and  _302
REMARK  125  A    between atoms: _301  and  _304
REMARK  126  A    between atoms: _304  and  _305
REMARK  127  A    between atoms: _311  and  _313
REMARK  128  A    between atoms: _313  and  _314
REMARK  129  A    between atoms: _313  and  _316
REMARK  130  A    between atoms: _316  and  _317
REMARK  131  A    between atoms: _322  and  _324
REMARK  132  A    between atoms: _324  and  _325
REMARK  133  A    between atoms: _324  and  _327
REMARK  134  A    between atoms: _327  and  _328
REMARK  135  A    between atoms: _331  and  _333
REMARK  136  A    between atoms: _333  and  _334
REMARK  137  A    between atoms: _337  and  _339
REMARK  138  A    between atoms: _339  and  _340
REMARK  139  A    between atoms: _343  and  _345
REMARK  140  A    between atoms: _345  and  _346
REMARK  141  A    between atoms: _345  and  _348
REMARK  142  A    between atoms: _348  and  _349
REMARK  143  A    between atoms: _349  and  _350
REMARK  144  A    between atoms: _350  and  _351
REMARK  145  A    between atoms: _360  and  _362
REMARK  146  A    between atoms: _362  and  _363
REMARK  147  A    between atoms: _362  and  _365
REMARK  148  A    between atoms: _365  and  _366
REMARK  149  A    between atoms: _371  and  _373
REMARK  150  A    between atoms: _373  and  _374
REMARK  151  A    between atoms: _373  and  _376
REMARK  152  A    between atoms: _378  and  _380
REMARK  153  A    between atoms: _380  and  _381
REMARK  154  A    between atoms: _380  and  _383
REMARK  155  A    between atoms: _383  and  _384
REMARK  156  A    between atoms: _384  and  _385
REMARK  157  A    between atoms: _387  and  _389
REMARK  158  A    between atoms: _389  and  _390
REMARK  159  A    between atoms: _389  and  _392
REMARK  160  A    between atoms: _392  and  _393
REMARK  161  A    between atoms: _396  and  _398
REMARK  162  A    between atoms: _398  and  _399
REMARK  163  A    between atoms: _398  and  _401
REMARK  164  A    between atoms: _401  and  _402
REMARK  165  A    between atoms: _405  and  _407
REMARK  166  A    between atoms: _407  and  _408
REMARK  167  A    between atoms: _407  and  _410
REMARK  168  A    between atoms: _410  and  _411
REMARK  169  A    between atoms: _411  and  _412
REMARK  170  A    between atoms: _412  and  _413
REMARK  171  A    between atoms: _413  and  _414
REMARK  172  A    between atoms: _418  and  _420
REMARK  173  A    between atoms: _420  and  _421
REMARK  174  A    between atoms: _420  and  _423
REMARK  175  A    between atoms: _426  and  _428
REMARK  176  A    between atoms: _428  and  _429
REMARK  177  A    between atoms: _432  and  _434
REMARK  178  A    between atoms: _434  and  _435
REMARK  179  A    between atoms: _434  and  _437
REMARK  180  A    between atoms: _437  and  _438
REMARK  181  A    between atoms: _441  and  _443
REMARK  182  A    between atoms: _443  and  _444
REMARK  183  A    between atoms: _443  and  _446
REMARK  184  A    between atoms: _446  and  _447
REMARK  185  A    between atoms: _453  and  _455
REMARK  186  A    between atoms: _455  and  _456
REMARK  187  A    between atoms: _455  and  _458
REMARK  188  A    between atoms: _458  and  _459
REMARK  189  A    between atoms: _462  and  _464
REMARK  190  A    between atoms: _464  and  _465
REMARK  191  A    between atoms: _468  and  _470
REMARK  192  A    between atoms: _470  and  _471
REMARK  193  A    between atoms: _470  and  _473
REMARK  194  A    between atoms: _473  and  _474
REMARK  195  A    between atoms: _474  and  _475
REMARK  196  A    between atoms: _475  and  _476
REMARK  197  A    between atoms: _485  and  _487
REMARK  198  A    between atoms: _487  and  _488
REMARK  199  A    between atoms: _487  and  _490
REMARK  200  A    between atoms: _490  and  _491
REMARK  201  A    between atoms: _494  and  _496
REMARK  202  A    between atoms: _496  and  _497
REMARK  203  A    between atoms: _496  and  _499
REMARK  204  A    between atoms: _499  and  _500
REMARK  205  A    between atoms: _500  and  _501
REMARK  206  A    between atoms: _503  and  _505
REMARK  207  A    between atoms: _505  and  _506
REMARK  208  A    between atoms: _505  and  _508
REMARK  209  A    between atoms: _508  and  _509
REMARK  210  A    between atoms: _514  and  _515
REMARK  211  A    between atoms: _517  and  _519
REMARK  212  A    between atoms: _519  and  _520
REMARK  213  A    between atoms: _519  and  _522
REMARK  214  A    between atoms: _522  and  _523
REMARK  215  A    between atoms: _526  and  _528
REMARK  216  A    between atoms: _528  and  _529
REMARK  217  A    between atoms: _528  and  _531
REMARK  218  A    between atoms: _531  and  _532
REMARK  219  A    between atoms: _537  and  _538
REMARK                            x       y       z     vdW  Elec       q    Type
REMARK                         _______ _______ _______ _____ _____    ______ ____
ROOT
ATOM      1  O   HOH     1      27.306  86.075   0.278  0.00  0.00    +0.000 OA
ENDROOT
TORSDOF 0
REMARK  Name = ../refined-set-2016/4aoi/4aoi_pocket.pdb
REMARK  219 active torsions:
REMARK  status: ('A' for Active; 'I' for Inactive)
REMARK    1  A    between atoms: _1  and  _3
REMARK    2  A    between atoms: _3  and  _4
REMARK    3  A    between atoms: _3  and  _6
REMARK    4  A    between atoms: _9  and  _11
REMARK    5  A    between atoms: _11  and  _12
REMARK    6  A    between atoms: _11  and  _14
REMARK    7  A    between atoms: _14  and  _15
REMARK    8  A    between atoms: _18  and  _20
REMARK    9  A    between atoms: _20  and  _21
REMARK   10  A    between atoms: _23  and  _25
REMARK   11  A    between atoms: _25  and  _26
REMARK   12  A    between atoms: _25  and  _28
REMARK   13  A    between atoms: _28  and  _29
REMARK   14  A    between atoms: _29  and  _30
REMARK   15  A    between atoms: _30  and  _31
REMARK   16  A    between atoms: _40  and  _42
REMARK   17  A    between atoms: _42  and  _43
REMARK   18  A    between atoms: _45  and  _47
REMARK   19  A    between atoms: _47  and  _48
REMARK   20  A    between atoms: _47  and  _50
REMARK   21  A    between atoms: _52  and  _54
REMARK   22  A    between atoms: _54  and  _55
REMARK   23  A    between atoms: _54  and  _57
REMARK   24  A    between atoms: _60  and  _62
REMARK   25  A    between atoms: _62  and  _63
REMARK   26  A    between atoms: _62  and  _65
REMARK   27  A    between atoms: _65  and  _66
REMARK   28  A    between atoms: _71  and  _72
REMARK   29  A    between atoms: _74  and  _76
REMARK   30  A    between atoms: _76  and  _77
REMARK   31  A    between atoms: _76  and  _79
REMARK   32  A    between atoms: _79  and  _80
REMARK   33  A    between atoms: _85  and  _87
REMARK   34  A    between atoms: _87  and  _88
REMARK   35  A    between atoms: _90  and  _92
REMARK   36  A    between atoms: _92  and  _93
REMARK   37  A    between atoms: _92  and  _95
REMARK   38  A    between atoms: _95  and  _96
REMARK   39  A    between atoms: _101  and  _103
REMARK   40  A    between atoms: _103  and  _104
REMARK   41  A    between atoms: _103  and  _106
REMARK   42  A    between atoms: _108  and  _110
REMARK   43  A    between atoms: _110  and  _111
REMARK   44  A    between atoms: _114  and  _116
REMARK   45  A    between atoms: _116  and  _117
REMARK   46  A    between atoms: _116  and  _119
REMARK   47  A    between atoms: _122  and  _124
REMARK   48  A    between atoms: _124  and  _125
REMARK   49  A    between atoms: _124  and  _127
REMARK   50  A    between atoms: _127  and  _128
REMARK   51  A    between atoms: _128  and  _129
REMARK   52  A    between atoms: _129  and  _130
REMARK   53  A    between atoms: _130  and  _131
REMARK   54  A    between atoms: _135  and  _137
REMARK   55  A    between atoms: _137  and  _138
REMARK   56  A    between atoms: _137  and  _140
REMARK   57  A    between atoms: _140  and  _141
REMARK   58  A    between atoms: _143  and  _145
REMARK   59  A    between atoms: _145  and  _146
REMARK   60  A    between atoms: _145  and  _148
REMARK   61  A    between atoms: _148  and  _149
REMARK   62  A    between atoms: _149  and  _150
REMARK   63  A    between atoms: _152  and  _154
REMARK   64  A    between atoms: _154  and  _155
REMARK   65  A    between atoms: _154  and  _157
REMARK   66  A    between atoms: _157  and  _158
REMARK   67  A    between atoms: _161  and  _163
REMARK   68  A    between atoms: _163  and  _164
REMARK   69  A    between atoms: _163  and  _166
REMARK   70  A    between atoms: _166  and  _167
REMARK   71  A    between atoms: _169  and  _171
REMARK   72  A    between atoms: _171  and  _172
REMARK   73  A    between atoms: _171  and  _174
REMARK   74  A    between atoms: _177  and  _179
REMARK   75  A    between atoms: _179  and  _180
REMARK   76  A    between atoms: _179  and  _182
REMARK   77  A    between atoms: _185  and  _187
REMARK   78  A    between atoms: _187  and  _188
REMARK   79  A    between atoms: _187  and  _190
REMARK   80  A    between atoms: _190  and  _191
REMARK   81  A    between atoms: _195  and  _196
REMARK   82  A    between atoms: _201  and  _203
REMARK   83  A    between atoms: _203  and  _204
REMARK   84  A    between atoms: _203  and  _206
REMARK   85  A    between atoms: _206  and  _207
REMARK   86  A    between atoms: _212  and  _213
REMARK   87  A    between atoms: _215  and  _217
REMARK   88  A    between atoms: _217  and  _218
REMARK   89  A    between atoms: _217  and  _220
REMARK   90  A    between atoms: _220  and  _221
REMARK   91  A    between atoms: _221  and  _222
REMARK   92  A    between atoms: _224  and  _226
REMARK   93  A    between atoms: _226  and  _227
REMARK   94  A    between atoms: _226  and  _229
REMARK   95  A    between atoms: _229  and  _230
REMARK   96  A    between atoms: _230  and  _231
REMARK   97  A    between atoms: _231  and  _232
REMARK   98  A    between atoms: _232  and  _233
REMARK   99  A    between atoms: _237  and  _239
REMARK  100  A    between atoms: _239  and  _240
REMARK  101  A    between atoms: _239  and  _242
REMARK  102  A    between atoms: _242  and  _243
REMARK  103  A    between atoms: _248  and  _250
REMARK  104  A    between atoms: _250  and  _251
REMARK  105  A    between atoms: _253  and  _255
REMARK  106  A    between atoms: _255  and  _256
REMARK  107  A    between atoms: _255  and  _258
REMARK  108  A    between atoms: _258  and  _259
REMARK  109  A    between atoms: _262  and  _264
REMARK  110  A    between atoms: _264  and  _265
REMARK  111  A    between atoms: _264  and  _267
REMARK  112  A    between atoms: _267  and  _268
REMARK  113  A    between atoms: _271  and  _273
REMARK  114  A    between atoms: _273  and  _274
REMARK  115  A    between atoms: _273  and  _276
REMARK  116  A    between atoms: _276  and  _277
REMARK  117  A    between atoms: _277  and  _278
REMARK  118  A    between atoms: _278  and  _279
REMARK  119  A    between atoms: _288  and  _290
REMARK  120  A    between atoms: _290  and  _291
REMARK  121  A    between atoms: _290  and  _293
REMARK  122  A    between atoms: _293  and  _294
REMARK  123  A    between atoms: _299  and  _301
REMARK  124  A    between atoms: _301  and  _302
REMARK  125  A    between atoms: _301  and  _304
REMARK  126  A    between atoms: _304  and  _305
REMARK  127  A    between atoms: _311  and  _313
REMARK  128  A    between atoms: _313  and  _314
REMARK  129  A    between atoms: _313  and  _316
REMARK  130  A    between atoms: _316  and  _317
REMARK  131  A    between atoms: _322  and  _324
REMARK  132  A    between atoms: _324  and  _325
REMARK  133  A    between atoms: _324  and  _327
REMARK  134  A    between atoms: _327  and  _328
REMARK  135  A    between atoms: _331  and  _333
REMARK  136  A    between atoms: _333  and  _334
REMARK  137  A    between atoms: _337  and  _339
REMARK  138  A    between atoms: _339  and  _340
REMARK  139  A    between atoms: _343  and  _345
REMARK  140  A    between atoms: _345  and  _346
REMARK  141  A    between atoms: _345  and  _348
REMARK  142  A    between atoms: _348  and  _349
REMARK  143  A    between atoms: _349  and  _350
REMARK  144  A    between atoms: _350  and  _351
REMARK  145  A    between atoms: _360  and  _362
REMARK  146  A    between atoms: _362  and  _363
REMARK  147  A    between atoms: _362  and  _365
REMARK  148  A    between atoms: _365  and  _366
REMARK  149  A    between atoms: _371  and  _373
REMARK  150  A    between atoms: _373  and  _374
REMARK  151  A    between atoms: _373  and  _376
REMARK  152  A    between atoms: _378  and  _380
REMARK  153  A    between atoms: _380  and  _381
REMARK  154  A    between atoms: _380  and  _383
REMARK  155  A    between atoms: _383  and  _384
REMARK  156  A    between atoms: _384  and  _385
REMARK  157  A    between atoms: _387  and  _389
REMARK  158  A    between atoms: _389  and  _390
REMARK  159  A    between atoms: _389  and  _392
REMARK  160  A    between atoms: _392  and  _393
REMARK  161  A    between atoms: _396  and  _398
REMARK  162  A    between atoms: _398  and  _399
REMARK  163  A    between atoms: _398  and  _401
REMARK  164  A    between atoms: _401  and  _402
REMARK  165  A    between atoms: _405  and  _407
REMARK  166  A    between atoms: _407  and  _408
REMARK  167  A    between atoms: _407  and  _410
REMARK  168  A    between atoms: _410  and  _411
REMARK  169  A    between atoms: _411  and  _412
REMARK  170  A    between atoms: _412  and  _413
REMARK  171  A    between atoms: _413  and  _414
REMARK  172  A    between atoms: _418  and  _420
REMARK  173  A    between atoms: _420  and  _421
REMARK  174  A    between atoms: _420  and  _423
REMARK  175  A    between atoms: _426  and  _428
REMARK  176  A    between atoms: _428  and  _429
REMARK  177  A    between atoms: _432  and  _434
REMARK  178  A    between atoms: _434  and  _435
REMARK  179  A    between atoms: _434  and  _437
REMARK  180  A    between atoms: _437  and  _438
REMARK  181  A    between atoms: _441  and  _443
REMARK  182  A    between atoms: _443  and  _444
REMARK  183  A    between atoms: _443  and  _446
REMARK  184  A    between atoms: _446  and  _447
REMARK  185  A    between atoms: _453  and  _455
REMARK  186  A    between atoms: _455  and  _456
REMARK  187  A    between atoms: _455  and  _458
REMARK  188  A    between atoms: _458  and  _459
REMARK  189  A    between atoms: _462  and  _464
REMARK  190  A    between atoms: _464  and  _465
REMARK  191  A    between atoms: _468  and  _470
REMARK  192  A    between atoms: _470  and  _471
REMARK  193  A    between atoms: _470  and  _473
REMARK  194  A    between atoms: _473  and  _474
REMARK  195  A    between atoms: _474  and  _475
REMARK  196  A    between atoms: _475  and  _476
REMARK  197  A    between atoms: _485  and  _487
REMARK  198  A    between atoms: _487  and  _488
REMARK  199  A    between atoms: _487  and  _490
REMARK  200  A    between atoms: _490  and  _491
REMARK  201  A    between atoms: _494  and  _496
REMARK  202  A    between atoms: _496  and  _497
REMARK  203  A    between atoms: _496  and  _499
REMARK  204  A    between atoms: _499  and  _500
REMARK  205  A    between atoms: _500  and  _501
REMARK  206  A    between atoms: _503  and  _505
REMARK  207  A    between atoms: _505  and  _506
REMARK  208  A    between atoms: _505  and  _508
REMARK  209  A    between atoms: _508  and  _509
REMARK  210  A    between atoms: _514  and  _515
REMARK  211  A    between atoms: _517  and  _519
REMARK  212  A    between atoms: _519  and  _520
REMARK  213  A    between atoms: _519  and  _522
REMARK  214  A    between atoms: _522  and  _523
REMARK  215  A    between atoms: _526  and  _528
REMARK  216  A    between atoms: _528  and  _529
REMARK  217  A    between atoms: _528  and  _531
REMARK  218  A    between atoms: _531  and  _532
REMARK  219  A    between atoms: _537  and  _538
REMARK                            x       y       z     vdW  Elec       q    Type
REMARK                         _______ _______ _______ _____ _____    ______ ____
ROOT
ATOM      1  O   HOH     1      26.757  81.641  -0.072  0.00  0.00    +0.000 OA
ENDROOT
TORSDOF 0
REMARK  Name = ../refined-set-2016/4aoi/4aoi_pocket.pdb
REMARK  219 active torsions:
REMARK  status: ('A' for Active; 'I' for Inactive)
REMARK    1  A    between atoms: _1  and  _3
REMARK    2  A    between atoms: _3  and  _4
REMARK    3  A    between atoms: _3  and  _6
REMARK    4  A    between atoms: _9  and  _11
REMARK    5  A    between atoms: _11  and  _12
REMARK    6  A    between atoms: _11  and  _14
REMARK    7  A    between atoms: _14  and  _15
REMARK    8  A    between atoms: _18  and  _20
REMARK    9  A    between atoms: _20  and  _21
REMARK   10  A    between atoms: _23  and  _25
REMARK   11  A    between atoms: _25  and  _26
REMARK   12  A    between atoms: _25  and  _28
REMARK   13  A    between atoms: _28  and  _29
REMARK   14  A    between atoms: _29  and  _30
REMARK   15  A    between atoms: _30  and  _31
REMARK   16  A    between atoms: _40  and  _42
REMARK   17  A    between atoms: _42  and  _43
REMARK   18  A    between atoms: _45  and  _47
REMARK   19  A    between atoms: _47  and  _48
REMARK   20  A    between atoms: _47  and  _50
REMARK   21  A    between atoms: _52  and  _54
REMARK   22  A    between atoms: _54  and  _55
REMARK   23  A    between atoms: _54  and  _57
REMARK   24  A    between atoms: _60  and  _62
REMARK   25  A    between atoms: _62  and  _63
REMARK   26  A    between atoms: _62  and  _65
REMARK   27  A    between atoms: _65  and  _66
REMARK   28  A    between atoms: _71  and  _72
REMARK   29  A    between atoms: _74  and  _76
REMARK   30  A    between atoms: _76  and  _77
REMARK   31  A    between atoms: _76  and  _79
REMARK   32  A    between atoms: _79  and  _80
REMARK   33  A    between atoms: _85  and  _87
REMARK   34  A    between atoms: _87  and  _88
REMARK   35  A    between atoms: _90  and  _92
REMARK   36  A    between atoms: _92  and  _93
REMARK   37  A    between atoms: _92  and  _95
REMARK   38  A    between atoms: _95  and  _96
REMARK   39  A    between atoms: _101  and  _103
REMARK   40  A    between atoms: _103  and  _104
REMARK   41  A    between atoms: _103  and  _106
REMARK   42  A    between atoms: _108  and  _110
REMARK   43  A    between atoms: _110  and  _111
REMARK   44  A    between atoms: _114  and  _116
REMARK   45  A    between atoms: _116  and  _117
REMARK   46  A    between atoms: _116  and  _119
REMARK   47  A    between atoms: _122  and  _124
REMARK   48  A    between atoms: _124  and  _125
REMARK   49  A    between atoms: _124  and  _127
REMARK   50  A    between atoms: _127  and  _128
REMARK   51  A    between atoms: _128  and  _129
REMARK   52  A    between atoms: _129  and  _130
REMARK   53  A    between atoms: _130  and  _131
REMARK   54  A    between atoms: _135  and  _137
REMARK   55  A    between atoms: _137  and  _138
REMARK   56  A    between atoms: _137  and  _140
REMARK   57  A    between atoms: _140  and  _141
REMARK   58  A    between atoms: _143  and  _145
REMARK   59  A    between atoms: _145  and  _146
REMARK   60  A    between atoms: _145  and  _148
REMARK   61  A    between atoms: _148  and  _149
REMARK   62  A    between atoms: _149  and  _150
REMARK   63  A    between atoms: _152  and  _154
REMARK   64  A    between atoms: _154  and  _155
REMARK   65  A    between atoms: _154  and  _157
REMARK   66  A    between atoms: _157  and  _158
REMARK   67  A    between atoms: _161  and  _163
REMARK   68  A    between atoms: _163  and  _164
REMARK   69  A    between atoms: _163  and  _166
REMARK   70  A    between atoms: _166  and  _167
REMARK   71  A    between atoms: _169  and  _171
REMARK   72  A    between atoms: _171  and  _172
REMARK   73  A    between atoms: _171  and  _174
REMARK   74  A    between atoms: _177  and  _179
REMARK   75  A    between atoms: _179  and  _180
REMARK   76  A    between atoms: _179  and  _182
REMARK   77  A    between atoms: _185  and  _187
REMARK   78  A    between atoms: _187  and  _188
REMARK   79  A    between atoms: _187  and  _190
REMARK   80  A    between atoms: _190  and  _191
REMARK   81  A    between atoms: _195  and  _196
REMARK   82  A    between atoms: _201  and  _203
REMARK   83  A    between atoms: _203  and  _204
REMARK   84  A    between atoms: _203  and  _206
REMARK   85  A    between atoms: _206  and  _207
REMARK   86  A    between atoms: _212  and  _213
REMARK   87  A    between atoms: _215  and  _217
REMARK   88  A    between atoms: _217  and  _218
REMARK   89  A    between atoms: _217  and  _220
REMARK   90  A    between atoms: _220  and  _221
REMARK   91  A    between atoms: _221  and  _222
REMARK   92  A    between atoms: _224  and  _226
REMARK   93  A    between atoms: _226  and  _227
REMARK   94  A    between atoms: _226  and  _229
REMARK   95  A    between atoms: _229  and  _230
REMARK   96  A    between atoms: _230  and  _231
REMARK   97  A    between atoms: _231  and  _232
REMARK   98  A    between atoms: _232  and  _233
REMARK   99  A    between atoms: _237  and  _239
REMARK  100  A    between atoms: _239  and  _240
REMARK  101  A    between atoms: _239  and  _242
REMARK  102  A    between atoms: _242  and  _243
REMARK  103  A    between atoms: _248  and  _250
REMARK  104  A    between atoms: _250  and  _251
REMARK  105  A    between atoms: _253  and  _255
REMARK  106  A    between atoms: _255  and  _256
REMARK  107  A    between atoms: _255  and  _258
REMARK  108  A    between atoms: _258  and  _259
REMARK  109  A    between atoms: _262  and  _264
REMARK  110  A    between atoms: _264  and  _265
REMARK  111  A    between atoms: _264  and  _267
REMARK  112  A    between atoms: _267  and  _268
REMARK  113  A    between atoms: _271  and  _273
REMARK  114  A    between atoms: _273  and  _274
REMARK  115  A    between atoms: _273  and  _276
REMARK  116  A    between atoms: _276  and  _277
REMARK  117  A    between atoms: _277  and  _278
REMARK  118  A    between atoms: _278  and  _279
REMARK  119  A    between atoms: _288  and  _290
REMARK  120  A    between atoms: _290  and  _291
REMARK  121  A    between atoms: _290  and  _293
REMARK  122  A    between atoms: _293  and  _294
REMARK  123  A    between atoms: _299  and  _301
REMARK  124  A    between atoms: _301  and  _302
REMARK  125  A    between atoms: _301  and  _304
REMARK  126  A    between atoms: _304  and  _305
REMARK  127  A    between atoms: _311  and  _313
REMARK  128  A    between atoms: _313  and  _314
REMARK  129  A    between atoms: _313  and  _316
REMARK  130  A    between atoms: _316  and  _317
REMARK  131  A    between atoms: _322  and  _324
REMARK  132  A    between atoms: _324  and  _325
REMARK  133  A    between atoms: _324  and  _327
REMARK  134  A    between atoms: _327  and  _328
REMARK  135  A    between atoms: _331  and  _333
REMARK  136  A    between atoms: _333  and  _334
REMARK  137  A    between atoms: _337  and  _339
REMARK  138  A    between atoms: _339  and  _340
REMARK  139  A    between atoms: _343  and  _345
REMARK  140  A    between atoms: _345  and  _346
REMARK  141  A    between atoms: _345  and  _348
REMARK  142  A    between atoms: _348  and  _349
REMARK  143  A    between atoms: _349  and  _350
REMARK  144  A    between atoms: _350  and  _351
REMARK  145  A    between atoms: _360  and  _362
REMARK  146  A    between atoms: _362  and  _363
REMARK  147  A    between atoms: _362  and  _365
REMARK  148  A    between atoms: _365  and  _366
REMARK  149  A    between atoms: _371  and  _373
REMARK  150  A    between atoms: _373  and  _374
REMARK  151  A    between atoms: _373  and  _376
REMARK  152  A    between atoms: _378  and  _380
REMARK  153  A    between atoms: _380  and  _381
REMARK  154  A    between atoms: _380  and  _383
REMARK  155  A    between atoms: _383  and  _384
REMARK  156  A    between atoms: _384  and  _385
REMARK  157  A    between atoms: _387  and  _389
REMARK  158  A    between atoms: _389  and  _390
REMARK  159  A    between atoms: _389  and  _392
REMARK  160  A    between atoms: _392  and  _393
REMARK  161  A    between atoms: _396  and  _398
REMARK  162  A    between atoms: _398  and  _399
REMARK  163  A    between atoms: _398  and  _401
REMARK  164  A    between atoms: _401  and  _402
REMARK  165  A    between atoms: _405  and  _407
REMARK  166  A    between atoms: _407  and  _408
REMARK  167  A    between atoms: _407  and  _410
REMARK  168  A    between atoms: _410  and  _411
REMARK  169  A    between atoms: _411  and  _412
REMARK  170  A    between atoms: _412  and  _413
REMARK  171  A    between atoms: _413  and  _414
REMARK  172  A    between atoms: _418  and  _420
REMARK  173  A    between atoms: _420  and  _421
REMARK  174  A    between atoms: _420  and  _423
REMARK  175  A    between atoms: _426  and  _428
REMARK  176  A    between atoms: _428  and  _429
REMARK  177  A    between atoms: _432  and  _434
REMARK  178  A    between atoms: _434  and  _435
REMARK  179  A    between atoms: _434  and  _437
REMARK  180  A    between atoms: _437  and  _438
REMARK  181  A    between atoms: _441  and  _443
REMARK  182  A    between atoms: _443  and  _444
REMARK  183  A    between atoms: _443  and  _446
REMARK  184  A    between atoms: _446  and  _447
REMARK  185  A    between atoms: _453  and  _455
REMARK  186  A    between atoms: _455  and  _456
REMARK  187  A    between atoms: _455  and  _458
REMARK  188  A    between atoms: _458  and  _459
REMARK  189  A    between atoms: _462  and  _464
REMARK  190  A    between atoms: _464  and  _465
REMARK  191  A    between atoms: _468  and  _470
REMARK  192  A    between atoms: _470  and  _471
REMARK  193  A    between atoms: _470  and  _473
REMARK  194  A    between atoms: _473  and  _474
REMARK  195  A    between atoms: _474  and  _475
REMARK  196  A    between atoms: _475  and  _476
REMARK  197  A    between atoms: _485  and  _487
REMARK  198  A    between atoms: _487  and  _488
REMARK  199  A    between atoms: _487  and  _490
REMARK  200  A    between atoms: _490  and  _491
REMARK  201  A    between atoms: _494  and  _496
REMARK  202  A    between atoms: _496  and  _497
REMARK  203  A    between atoms: _496  and  _499
REMARK  204  A    between atoms: _499  and  _500
REMARK  205  A    between atoms: _500  and  _501
REMARK  206  A    between atoms: _503  and  _505
REMARK  207  A    between atoms: _505  and  _506
REMARK  208  A    between atoms: _505  and  _508
REMARK  209  A    between atoms: _508  and  _509
REMARK  210  A    between atoms: _514  and  _515
REMARK  211  A    between atoms: _517  and  _519
REMARK  212  A    between atoms: _519  and  _520
REMARK  213  A    between atoms: _519  and  _522
REMARK  214  A    between atoms: _522  and  _523
REMARK  215  A    between atoms: _526  and  _528
REMARK  216  A    between atoms: _528  and  _529
REMARK  217  A    between atoms: _528  and  _531
REMARK  218  A    between atoms: _531  and  _532
REMARK  219  A    between atoms: _537  and  _538
REMARK                            x       y       z     vdW  Elec       q    Type
REMARK                         _______ _______ _______ _____ _____    ______ ____
ROOT
ATOM      1  O   HOH     1      25.063  77.433   0.747  0.00  0.00    +0.000 OA
ENDROOT
TORSDOF 0
REMARK  Name = ../refined-set-2016/4aoi/4aoi_pocket.pdb
REMARK  219 active torsions:
REMARK  status: ('A' for Active; 'I' for Inactive)
REMARK    1  A    between atoms: _1  and  _3
REMARK    2  A    between atoms: _3  and  _4
REMARK    3  A    between atoms: _3  and  _6
REMARK    4  A    between atoms: _9  and  _11
REMARK    5  A    between atoms: _11  and  _12
REMARK    6  A    between atoms: _11  and  _14
REMARK    7  A    between atoms: _14  and  _15
REMARK    8  A    between atoms: _18  and  _20
REMARK    9  A    between atoms: _20  and  _21
REMARK   10  A    between atoms: _23  and  _25
REMARK   11  A    between atoms: _25  and  _26
REMARK   12  A    between atoms: _25  and  _28
REMARK   13  A    between atoms: _28  and  _29
REMARK   14  A    between atoms: _29  and  _30
REMARK   15  A    between atoms: _30  and  _31
REMARK   16  A    between atoms: _40  and  _42
REMARK   17  A    between atoms: _42  and  _43
REMARK   18  A    between atoms: _45  and  _47
REMARK   19  A    between atoms: _47  and  _48
REMARK   20  A    between atoms: _47  and  _50
REMARK   21  A    between atoms: _52  and  _54
REMARK   22  A    between atoms: _54  and  _55
REMARK   23  A    between atoms: _54  and  _57
REMARK   24  A    between atoms: _60  and  _62
REMARK   25  A    between atoms: _62  and  _63
REMARK   26  A    between atoms: _62  and  _65
REMARK   27  A    between atoms: _65  and  _66
REMARK   28  A    between atoms: _71  and  _72
REMARK   29  A    between atoms: _74  and  _76
REMARK   30  A    between atoms: _76  and  _77
REMARK   31  A    between atoms: _76  and  _79
REMARK   32  A    between atoms: _79  and  _80
REMARK   33  A    between atoms: _85  and  _87
REMARK   34  A    between atoms: _87  and  _88
REMARK   35  A    between atoms: _90  and  _92
REMARK   36  A    between atoms: _92  and  _93
REMARK   37  A    between atoms: _92  and  _95
REMARK   38  A    between atoms: _95  and  _96
REMARK   39  A    between atoms: _101  and  _103
REMARK   40  A    between atoms: _103  and  _104
REMARK   41  A    between atoms: _103  and  _106
REMARK   42  A    between atoms: _108  and  _110
REMARK   43  A    between atoms: _110  and  _111
REMARK   44  A    between atoms: _114  and  _116
REMARK   45  A    between atoms: _116  and  _117
REMARK   46  A    between atoms: _116  and  _119
REMARK   47  A    between atoms: _122  and  _124
REMARK   48  A    between atoms: _124  and  _125
REMARK   49  A    between atoms: _124  and  _127
REMARK   50  A    between atoms: _127  and  _128
REMARK   51  A    between atoms: _128  and  _129
REMARK   52  A    between atoms: _129  and  _130
REMARK   53  A    between atoms: _130  and  _131
REMARK   54  A    between atoms: _135  and  _137
REMARK   55  A    between atoms: _137  and  _138
REMARK   56  A    between atoms: _137  and  _140
REMARK   57  A    between atoms: _140  and  _141
REMARK   58  A    between atoms: _143  and  _145
REMARK   59  A    between atoms: _145  and  _146
REMARK   60  A    between atoms: _145  and  _148
REMARK   61  A    between atoms: _148  and  _149
REMARK   62  A    between atoms: _149  and  _150
REMARK   63  A    between atoms: _152  and  _154
REMARK   64  A    between atoms: _154  and  _155
REMARK   65  A    between atoms: _154  and  _157
REMARK   66  A    between atoms: _157  and  _158
REMARK   67  A    between atoms: _161  and  _163
REMARK   68  A    between atoms: _163  and  _164
REMARK   69  A    between atoms: _163  and  _166
REMARK   70  A    between atoms: _166  and  _167
REMARK   71  A    between atoms: _169  and  _171
REMARK   72  A    between atoms: _171  and  _172
REMARK   73  A    between atoms: _171  and  _174
REMARK   74  A    between atoms: _177  and  _179
REMARK   75  A    between atoms: _179  and  _180
REMARK   76  A    between atoms: _179  and  _182
REMARK   77  A    between atoms: _185  and  _187
REMARK   78  A    between atoms: _187  and  _188
REMARK   79  A    between atoms: _187  and  _190
REMARK   80  A    between atoms: _190  and  _191
REMARK   81  A    between atoms: _195  and  _196
REMARK   82  A    between atoms: _201  and  _203
REMARK   83  A    between atoms: _203  and  _204
REMARK   84  A    between atoms: _203  and  _206
REMARK   85  A    between atoms: _206  and  _207
REMARK   86  A    between atoms: _212  and  _213
REMARK   87  A    between atoms: _215  and  _217
REMARK   88  A    between atoms: _217  and  _218
REMARK   89  A    between atoms: _217  and  _220
REMARK   90  A    between atoms: _220  and  _221
REMARK   91  A    between atoms: _221  and  _222
REMARK   92  A    between atoms: _224  and  _226
REMARK   93  A    between atoms: _226  and  _227
REMARK   94  A    between atoms: _226  and  _229
REMARK   95  A    between atoms: _229  and  _230
REMARK   96  A    between atoms: _230  and  _231
REMARK   97  A    between atoms: _231  and  _232
REMARK   98  A    between atoms: _232  and  _233
REMARK   99  A    between atoms: _237  and  _239
REMARK  100  A    between atoms: _239  and  _240
REMARK  101  A    between atoms: _239  and  _242
REMARK  102  A    between atoms: _242  and  _243
REMARK  103  A    between atoms: _248  and  _250
REMARK  104  A    between atoms: _250  and  _251
REMARK  105  A    between atoms: _253  and  _255
REMARK  106  A    between atoms: _255  and  _256
REMARK  107  A    between atoms: _255  and  _258
REMARK  108  A    between atoms: _258  and  _259
REMARK  109  A    between atoms: _262  and  _264
REMARK  110  A    between atoms: _264  and  _265
REMARK  111  A    between atoms: _264  and  _267
REMARK  112  A    between atoms: _267  and  _268
REMARK  113  A    between atoms: _271  and  _273
REMARK  114  A    between atoms: _273  and  _274
REMARK  115  A    between atoms: _273  and  _276
REMARK  116  A    between atoms: _276  and  _277
REMARK  117  A    between atoms: _277  and  _278
REMARK  118  A    between atoms: _278  and  _279
REMARK  119  A    between atoms: _288  and  _290
REMARK  120  A    between atoms: _290  and  _291
REMARK  121  A    between atoms: _290  and  _293
REMARK  122  A    between atoms: _293  and  _294
REMARK  123  A    between atoms: _299  and  _301
REMARK  124  A    between atoms: _301  and  _302
REMARK  125  A    between atoms: _301  and  _304
REMARK  126  A    between atoms: _304  and  _305
REMARK  127  A    between atoms: _311  and  _313
REMARK  128  A    between atoms: _313  and  _314
REMARK  129  A    between atoms: _313  and  _316
REMARK  130  A    between atoms: _316  and  _317
REMARK  131  A    between atoms: _322  and  _324
REMARK  132  A    between atoms: _324  and  _325
REMARK  133  A    between atoms: _324  and  _327
REMARK  134  A    between atoms: _327  and  _328
REMARK  135  A    between atoms: _331  and  _333
REMARK  136  A    between atoms: _333  and  _334
REMARK  137  A    between atoms: _337  and  _339
REMARK  138  A    between atoms: _339  and  _340
REMARK  139  A    between atoms: _343  and  _345
REMARK  140  A    between atoms: _345  and  _346
REMARK  141  A    between atoms: _345  and  _348
REMARK  142  A    between atoms: _348  and  _349
REMARK  143  A    between atoms: _349  and  _350
REMARK  144  A    between atoms: _350  and  _351
REMARK  145  A    between atoms: _360  and  _362
REMARK  146  A    between atoms: _362  and  _363
REMARK  147  A    between atoms: _362  and  _365
REMARK  148  A    between atoms: _365  and  _366
REMARK  149  A    between atoms: _371  and  _373
REMARK  150  A    between atoms: _373  and  _374
REMARK  151  A    between atoms: _373  and  _376
REMARK  152  A    between atoms: _378  and  _380
REMARK  153  A    between atoms: _380  and  _381
REMARK  154  A    between atoms: _380  and  _383
REMARK  155  A    between atoms: _383  and  _384
REMARK  156  A    between atoms: _384  and  _385
REMARK  157  A    between atoms: _387  and  _389
REMARK  158  A    between atoms: _389  and  _390
REMARK  159  A    between atoms: _389  and  _392
REMARK  160  A    between atoms: _392  and  _393
REMARK  161  A    between atoms: _396  and  _398
REMARK  162  A    between atoms: _398  and  _399
REMARK  163  A    between atoms: _398  and  _401
REMARK  164  A    between atoms: _401  and  _402
REMARK  165  A    between atoms: _405  and  _407
REMARK  166  A    between atoms: _407  and  _408
REMARK  167  A    between atoms: _407  and  _410
REMARK  168  A    between atoms: _410  and  _411
REMARK  169  A    between atoms: _411  and  _412
REMARK  170  A    between atoms: _412  and  _413
REMARK  171  A    between atoms: _413  and  _414
REMARK  172  A    between atoms: _418  and  _420
REMARK  173  A    between atoms: _420  and  _421
REMARK  174  A    between atoms: _420  and  _423
REMARK  175  A    between atoms: _426  and  _428
REMARK  176  A    between atoms: _428  and  _429
REMARK  177  A    between atoms: _432  and  _434
REMARK  178  A    between atoms: _434  and  _435
REMARK  179  A    between atoms: _434  and  _437
REMARK  180  A    between atoms: _437  and  _438
REMARK  181  A    between atoms: _441  and  _443
REMARK  182  A    between atoms: _443  and  _444
REMARK  183  A    between atoms: _443  and  _446
REMARK  184  A    between atoms: _446  and  _447
REMARK  185  A    between atoms: _453  and  _455
REMARK  186  A    between atoms: _455  and  _456
REMARK  187  A    between atoms: _455  and  _458
REMARK  188  A    between atoms: _458  and  _459
REMARK  189  A    between atoms: _462  and  _464
REMARK  190  A    between atoms: _464  and  _465
REMARK  191  A    between atoms: _468  and  _470
REMARK  192  A    between atoms: _470  and  _471
REMARK  193  A    between atoms: _470  and  _473
REMARK  194  A    between atoms: _473  and  _474
REMARK  195  A    between atoms: _474  and  _475
REMARK  196  A    between atoms: _475  and  _476
REMARK  197  A    between atoms: _485  and  _487
REMARK  198  A    between atoms: _487  and  _488
REMARK  199  A    between atoms: _487  and  _490
REMARK  200  A    between atoms: _490  and  _491
REMARK  201  A    between atoms: _494  and  _496
REMARK  202  A    between atoms: _496  and  _497
REMARK  203  A    between atoms: _496  and  _499
REMARK  204  A    between atoms: _499  and  _500
REMARK  205  A    between atoms: _500  and  _501
REMARK  206  A    between atoms: _503  and  _505
REMARK  207  A    between atoms: _505  and  _506
REMARK  208  A    between atoms: _505  and  _508
REMARK  209  A    between atoms: _508  and  _509
REMARK  210  A    between atoms: _514  and  _515
REMARK  211  A    between atoms: _517  and  _519
REMARK  212  A    between atoms: _519  and  _520
REMARK  213  A    between atoms: _519  and  _522
REMARK  214  A    between atoms: _522  and  _523
REMARK  215  A    between atoms: _526  and  _528
REMARK  216  A    between atoms: _528  and  _529
REMARK  217  A    between atoms: _528  and  _531
REMARK  218  A    between atoms: _531  and  _532
REMARK  219  A    between atoms: _537  and  _538
REMARK                            x       y       z     vdW  Elec       q    Type
REMARK                         _______ _______ _______ _____ _____    ______ ____
ROOT
ATOM      1  O   HOH     1      22.619  80.559   0.657  0.00  0.00    +0.000 OA
ENDROOT
TORSDOF 0
REMARK  Name = ../refined-set-2016/4aoi/4aoi_pocket.pdb
REMARK  219 active torsions:
REMARK  status: ('A' for Active; 'I' for Inactive)
REMARK    1  A    between atoms: _1  and  _3
REMARK    2  A    between atoms: _3  and  _4
REMARK    3  A    between atoms: _3  and  _6
REMARK    4  A    between atoms: _9  and  _11
REMARK    5  A    between atoms: _11  and  _12
REMARK    6  A    between atoms: _11  and  _14
REMARK    7  A    between atoms: _14  and  _15
REMARK    8  A    between atoms: _18  and  _20
REMARK    9  A    between atoms: _20  and  _21
REMARK   10  A    between atoms: _23  and  _25
REMARK   11  A    between atoms: _25  and  _26
REMARK   12  A    between atoms: _25  and  _28
REMARK   13  A    between atoms: _28  and  _29
REMARK   14  A    between atoms: _29  and  _30
REMARK   15  A    between atoms: _30  and  _31
REMARK   16  A    between atoms: _40  and  _42
REMARK   17  A    between atoms: _42  and  _43
REMARK   18  A    between atoms: _45  and  _47
REMARK   19  A    between atoms: _47  and  _48
REMARK   20  A    between atoms: _47  and  _50
REMARK   21  A    between atoms: _52  and  _54
REMARK   22  A    between atoms: _54  and  _55
REMARK   23  A    between atoms: _54  and  _57
REMARK   24  A    between atoms: _60  and  _62
REMARK   25  A    between atoms: _62  and  _63
REMARK   26  A    between atoms: _62  and  _65
REMARK   27  A    between atoms: _65  and  _66
REMARK   28  A    between atoms: _71  and  _72
REMARK   29  A    between atoms: _74  and  _76
REMARK   30  A    between atoms: _76  and  _77
REMARK   31  A    between atoms: _76  and  _79
REMARK   32  A    between atoms: _79  and  _80
REMARK   33  A    between atoms: _85  and  _87
REMARK   34  A    between atoms: _87  and  _88
REMARK   35  A    between atoms: _90  and  _92
REMARK   36  A    between atoms: _92  and  _93
REMARK   37  A    between atoms: _92  and  _95
REMARK   38  A    between atoms: _95  and  _96
REMARK   39  A    between atoms: _101  and  _103
REMARK   40  A    between atoms: _103  and  _104
REMARK   41  A    between atoms: _103  and  _106
REMARK   42  A    between atoms: _108  and  _110
REMARK   43  A    between atoms: _110  and  _111
REMARK   44  A    between atoms: _114  and  _116
REMARK   45  A    between atoms: _116  and  _117
REMARK   46  A    between atoms: _116  and  _119
REMARK   47  A    between atoms: _122  and  _124
REMARK   48  A    between atoms: _124  and  _125
REMARK   49  A    between atoms: _124  and  _127
REMARK   50  A    between atoms: _127  and  _128
REMARK   51  A    between atoms: _128  and  _129
REMARK   52  A    between atoms: _129  and  _130
REMARK   53  A    between atoms: _130  and  _131
REMARK   54  A    between atoms: _135  and  _137
REMARK   55  A    between atoms: _137  and  _138
REMARK   56  A    between atoms: _137  and  _140
REMARK   57  A    between atoms: _140  and  _141
REMARK   58  A    between atoms: _143  and  _145
REMARK   59  A    between atoms: _145  and  _146
REMARK   60  A    between atoms: _145  and  _148
REMARK   61  A    between atoms: _148  and  _149
REMARK   62  A    between atoms: _149  and  _150
REMARK   63  A    between atoms: _152  and  _154
REMARK   64  A    between atoms: _154  and  _155
REMARK   65  A    between atoms: _154  and  _157
REMARK   66  A    between atoms: _157  and  _158
REMARK   67  A    between atoms: _161  and  _163
REMARK   68  A    between atoms: _163  and  _164
REMARK   69  A    between atoms: _163  and  _166
REMARK   70  A    between atoms: _166  and  _167
REMARK   71  A    between atoms: _169  and  _171
REMARK   72  A    between atoms: _171  and  _172
REMARK   73  A    between atoms: _171  and  _174
REMARK   74  A    between atoms: _177  and  _179
REMARK   75  A    between atoms: _179  and  _180
REMARK   76  A    between atoms: _179  and  _182
REMARK   77  A    between atoms: _185  and  _187
REMARK   78  A    between atoms: _187  and  _188
REMARK   79  A    between atoms: _187  and  _190
REMARK   80  A    between atoms: _190  and  _191
REMARK   81  A    between atoms: _195  and  _196
REMARK   82  A    between atoms: _201  and  _203
REMARK   83  A    between atoms: _203  and  _204
REMARK   84  A    between atoms: _203  and  _206
REMARK   85  A    between atoms: _206  and  _207
REMARK   86  A    between atoms: _212  and  _213
REMARK   87  A    between atoms: _215  and  _217
REMARK   88  A    between atoms: _217  and  _218
REMARK   89  A    between atoms: _217  and  _220
REMARK   90  A    between atoms: _220  and  _221
REMARK   91  A    between atoms: _221  and  _222
REMARK   92  A    between atoms: _224  and  _226
REMARK   93  A    between atoms: _226  and  _227
REMARK   94  A    between atoms: _226  and  _229
REMARK   95  A    between atoms: _229  and  _230
REMARK   96  A    between atoms: _230  and  _231
REMARK   97  A    between atoms: _231  and  _232
REMARK   98  A    between atoms: _232  and  _233
REMARK   99  A    between atoms: _237  and  _239
REMARK  100  A    between atoms: _239  and  _240
REMARK  101  A    between atoms: _239  and  _242
REMARK  102  A    between atoms: _242  and  _243
REMARK  103  A    between atoms: _248  and  _250
REMARK  104  A    between atoms: _250  and  _251
REMARK  105  A    between atoms: _253  and  _255
REMARK  106  A    between atoms: _255  and  _256
REMARK  107  A    between atoms: _255  and  _258
REMARK  108  A    between atoms: _258  and  _259
REMARK  109  A    between atoms: _262  and  _264
REMARK  110  A    between atoms: _264  and  _265
REMARK  111  A    between atoms: _264  and  _267
REMARK  112  A    between atoms: _267  and  _268
REMARK  113  A    between atoms: _271  and  _273
REMARK  114  A    between atoms: _273  and  _274
REMARK  115  A    between atoms: _273  and  _276
REMARK  116  A    between atoms: _276  and  _277
REMARK  117  A    between atoms: _277  and  _278
REMARK  118  A    between atoms: _278  and  _279
REMARK  119  A    between atoms: _288  and  _290
REMARK  120  A    between atoms: _290  and  _291
REMARK  121  A    between atoms: _290  and  _293
REMARK  122  A    between atoms: _293  and  _294
REMARK  123  A    between atoms: _299  and  _301
REMARK  124  A    between atoms: _301  and  _302
REMARK  125  A    between atoms: _301  and  _304
REMARK  126  A    between atoms: _304  and  _305
REMARK  127  A    between atoms: _311  and  _313
REMARK  128  A    between atoms: _313  and  _314
REMARK  129  A    between atoms: _313  and  _316
REMARK  130  A    between atoms: _316  and  _317
REMARK  131  A    between atoms: _322  and  _324
REMARK  132  A    between atoms: _324  and  _325
REMARK  133  A    between atoms: _324  and  _327
REMARK  134  A    between atoms: _327  and  _328
REMARK  135  A    between atoms: _331  and  _333
REMARK  136  A    between atoms: _333  and  _334
REMARK  137  A    between atoms: _337  and  _339
REMARK  138  A    between atoms: _339  and  _340
REMARK  139  A    between atoms: _343  and  _345
REMARK  140  A    between atoms: _345  and  _346
REMARK  141  A    between atoms: _345  and  _348
REMARK  142  A    between atoms: _348  and  _349
REMARK  143  A    between atoms: _349  and  _350
REMARK  144  A    between atoms: _350  and  _351
REMARK  145  A    between atoms: _360  and  _362
REMARK  146  A    between atoms: _362  and  _363
REMARK  147  A    between atoms: _362  and  _365
REMARK  148  A    between atoms: _365  and  _366
REMARK  149  A    between atoms: _371  and  _373
REMARK  150  A    between atoms: _373  and  _374
REMARK  151  A    between atoms: _373  and  _376
REMARK  152  A    between atoms: _378  and  _380
REMARK  153  A    between atoms: _380  and  _381
REMARK  154  A    between atoms: _380  and  _383
REMARK  155  A    between atoms: _383  and  _384
REMARK  156  A    between atoms: _384  and  _385
REMARK  157  A    between atoms: _387  and  _389
REMARK  158  A    between atoms: _389  and  _390
REMARK  159  A    between atoms: _389  and  _392
REMARK  160  A    between atoms: _392  and  _393
REMARK  161  A    between atoms: _396  and  _398
REMARK  162  A    between atoms: _398  and  _399
REMARK  163  A    between atoms: _398  and  _401
REMARK  164  A    between atoms: _401  and  _402
REMARK  165  A    between atoms: _405  and  _407
REMARK  166  A    between atoms: _407  and  _408
REMARK  167  A    between atoms: _407  and  _410
REMARK  168  A    between atoms: _410  and  _411
REMARK  169  A    between atoms: _411  and  _412
REMARK  170  A    between atoms: _412  and  _413
REMARK  171  A    between atoms: _413  and  _414
REMARK  172  A    between atoms: _418  and  _420
REMARK  173  A    between atoms: _420  and  _421
REMARK  174  A    between atoms: _420  and  _423
REMARK  175  A    between atoms: _426  and  _428
REMARK  176  A    between atoms: _428  and  _429
REMARK  177  A    between atoms: _432  and  _434
REMARK  178  A    between atoms: _434  and  _435
REMARK  179  A    between atoms: _434  and  _437
REMARK  180  A    between atoms: _437  and  _438
REMARK  181  A    between atoms: _441  and  _443
REMARK  182  A    between atoms: _443  and  _444
REMARK  183  A    between atoms: _443  and  _446
REMARK  184  A    between atoms: _446  and  _447
REMARK  185  A    between atoms: _453  and  _455
REMARK  186  A    between atoms: _455  and  _456
REMARK  187  A    between atoms: _455  and  _458
REMARK  188  A    between atoms: _458  and  _459
REMARK  189  A    between atoms: _462  and  _464
REMARK  190  A    between atoms: _464  and  _465
REMARK  191  A    between atoms: _468  and  _470
REMARK  192  A    between atoms: _470  and  _471
REMARK  193  A    between atoms: _470  and  _473
REMARK  194  A    between atoms: _473  and  _474
REMARK  195  A    between atoms: _474  and  _475
REMARK  196  A    between atoms: _475  and  _476
REMARK  197  A    between atoms: _485  and  _487
REMARK  198  A    between atoms: _487  and  _488
REMARK  199  A    between atoms: _487  and  _490
REMARK  200  A    between atoms: _490  and  _491
REMARK  201  A    between atoms: _494  and  _496
REMARK  202  A    between atoms: _496  and  _497
REMARK  203  A    between atoms: _496  and  _499
REMARK  204  A    between atoms: _499  and  _500
REMARK  205  A    between atoms: _500  and  _501
REMARK  206  A    between atoms: _503  and  _505
REMARK  207  A    between atoms: _505  and  _506
REMARK  208  A    between atoms: _505  and  _508
REMARK  209  A    between atoms: _508  and  _509
REMARK  210  A    between atoms: _514  and  _515
REMARK  211  A    between atoms: _517  and  _519
REMARK  212  A    between atoms: _519  and  _520
REMARK  213  A    between atoms: _519  and  _522
REMARK  214  A    between atoms: _522  and  _523
REMARK  215  A    between atoms: _526  and  _528
REMARK  216  A    between atoms: _528  and  _529
REMARK  217  A    between atoms: _528  and  _531
REMARK  218  A    between atoms: _531  and  _532
REMARK  219  A    between atoms: _537  and  _538
REMARK                            x       y       z     vdW  Elec       q    Type
REMARK                         _______ _______ _______ _____ _____    ______ ____
ROOT
ATOM      1  O   HOH     1      17.711  76.434   0.342  0.00  0.00    +0.000 OA
ENDROOT
TORSDOF 0
REMARK  Name = ../refined-set-2016/4aoi/4aoi_pocket.pdb
REMARK  219 active torsions:
REMARK  status: ('A' for Active; 'I' for Inactive)
REMARK    1  A    between atoms: _1  and  _3
REMARK    2  A    between atoms: _3  and  _4
REMARK    3  A    between atoms: _3  and  _6
REMARK    4  A    between atoms: _9  and  _11
REMARK    5  A    between atoms: _11  and  _12
REMARK    6  A    between atoms: _11  and  _14
REMARK    7  A    between atoms: _14  and  _15
REMARK    8  A    between atoms: _18  and  _20
REMARK    9  A    between atoms: _20  and  _21
REMARK   10  A    between atoms: _23  and  _25
REMARK   11  A    between atoms: _25  and  _26
REMARK   12  A    between atoms: _25  and  _28
REMARK   13  A    between atoms: _28  and  _29
REMARK   14  A    between atoms: _29  and  _30
REMARK   15  A    between atoms: _30  and  _31
REMARK   16  A    between atoms: _40  and  _42
REMARK   17  A    between atoms: _42  and  _43
REMARK   18  A    between atoms: _45  and  _47
REMARK   19  A    between atoms: _47  and  _48
REMARK   20  A    between atoms: _47  and  _50
REMARK   21  A    between atoms: _52  and  _54
REMARK   22  A    between atoms: _54  and  _55
REMARK   23  A    between atoms: _54  and  _57
REMARK   24  A    between atoms: _60  and  _62
REMARK   25  A    between atoms: _62  and  _63
REMARK   26  A    between atoms: _62  and  _65
REMARK   27  A    between atoms: _65  and  _66
REMARK   28  A    between atoms: _71  and  _72
REMARK   29  A    between atoms: _74  and  _76
REMARK   30  A    between atoms: _76  and  _77
REMARK   31  A    between atoms: _76  and  _79
REMARK   32  A    between atoms: _79  and  _80
REMARK   33  A    between atoms: _85  and  _87
REMARK   34  A    between atoms: _87  and  _88
REMARK   35  A    between atoms: _90  and  _92
REMARK   36  A    between atoms: _92  and  _93
REMARK   37  A    between atoms: _92  and  _95
REMARK   38  A    between atoms: _95  and  _96
REMARK   39  A    between atoms: _101  and  _103
REMARK   40  A    between atoms: _103  and  _104
REMARK   41  A    between atoms: _103  and  _106
REMARK   42  A    between atoms: _108  and  _110
REMARK   43  A    between atoms: _110  and  _111
REMARK   44  A    between atoms: _114  and  _116
REMARK   45  A    between atoms: _116  and  _117
REMARK   46  A    between atoms: _116  and  _119
REMARK   47  A    between atoms: _122  and  _124
REMARK   48  A    between atoms: _124  and  _125
REMARK   49  A    between atoms: _124  and  _127
REMARK   50  A    between atoms: _127  and  _128
REMARK   51  A    between atoms: _128  and  _129
REMARK   52  A    between atoms: _129  and  _130
REMARK   53  A    between atoms: _130  and  _131
REMARK   54  A    between atoms: _135  and  _137
REMARK   55  A    between atoms: _137  and  _138
REMARK   56  A    between atoms: _137  and  _140
REMARK   57  A    between atoms: _140  and  _141
REMARK   58  A    between atoms: _143  and  _145
REMARK   59  A    between atoms: _145  and  _146
REMARK   60  A    between atoms: _145  and  _148
REMARK   61  A    between atoms: _148  and  _149
REMARK   62  A    between atoms: _149  and  _150
REMARK   63  A    between atoms: _152  and  _154
REMARK   64  A    between atoms: _154  and  _155
REMARK   65  A    between atoms: _154  and  _157
REMARK   66  A    between atoms: _157  and  _158
REMARK   67  A    between atoms: _161  and  _163
REMARK   68  A    between atoms: _163  and  _164
REMARK   69  A    between atoms: _163  and  _166
REMARK   70  A    between atoms: _166  and  _167
REMARK   71  A    between atoms: _169  and  _171
REMARK   72  A    between atoms: _171  and  _172
REMARK   73  A    between atoms: _171  and  _174
REMARK   74  A    between atoms: _177  and  _179
REMARK   75  A    between atoms: _179  and  _180
REMARK   76  A    between atoms: _179  and  _182
REMARK   77  A    between atoms: _185  and  _187
REMARK   78  A    between atoms: _187  and  _188
REMARK   79  A    between atoms: _187  and  _190
REMARK   80  A    between atoms: _190  and  _191
REMARK   81  A    between atoms: _195  and  _196
REMARK   82  A    between atoms: _201  and  _203
REMARK   83  A    between atoms: _203  and  _204
REMARK   84  A    between atoms: _203  and  _206
REMARK   85  A    between atoms: _206  and  _207
REMARK   86  A    between atoms: _212  and  _213
REMARK   87  A    between atoms: _215  and  _217
REMARK   88  A    between atoms: _217  and  _218
REMARK   89  A    between atoms: _217  and  _220
REMARK   90  A    between atoms: _220  and  _221
REMARK   91  A    between atoms: _221  and  _222
REMARK   92  A    between atoms: _224  and  _226
REMARK   93  A    between atoms: _226  and  _227
REMARK   94  A    between atoms: _226  and  _229
REMARK   95  A    between atoms: _229  and  _230
REMARK   96  A    between atoms: _230  and  _231
REMARK   97  A    between atoms: _231  and  _232
REMARK   98  A    between atoms: _232  and  _233
REMARK   99  A    between atoms: _237  and  _239
REMARK  100  A    between atoms: _239  and  _240
REMARK  101  A    between atoms: _239  and  _242
REMARK  102  A    between atoms: _242  and  _243
REMARK  103  A    between atoms: _248  and  _250
REMARK  104  A    between atoms: _250  and  _251
REMARK  105  A    between atoms: _253  and  _255
REMARK  106  A    between atoms: _255  and  _256
REMARK  107  A    between atoms: _255  and  _258
REMARK  108  A    between atoms: _258  and  _259
REMARK  109  A    between atoms: _262  and  _264
REMARK  110  A    between atoms: _264  and  _265
REMARK  111  A    between atoms: _264  and  _267
REMARK  112  A    between atoms: _267  and  _268
REMARK  113  A    between atoms: _271  and  _273
REMARK  114  A    between atoms: _273  and  _274
REMARK  115  A    between atoms: _273  and  _276
REMARK  116  A    between atoms: _276  and  _277
REMARK  117  A    between atoms: _277  and  _278
REMARK  118  A    between atoms: _278  and  _279
REMARK  119  A    between atoms: _288  and  _290
REMARK  120  A    between atoms: _290  and  _291
REMARK  121  A    between atoms: _290  and  _293
REMARK  122  A    between atoms: _293  and  _294
REMARK  123  A    between atoms: _299  and  _301
REMARK  124  A    between atoms: _301  and  _302
REMARK  125  A    between atoms: _301  and  _304
REMARK  126  A    between atoms: _304  and  _305
REMARK  127  A    between atoms: _311  and  _313
REMARK  128  A    between atoms: _313  and  _314
REMARK  129  A    between atoms: _313  and  _316
REMARK  130  A    between atoms: _316  and  _317
REMARK  131  A    between atoms: _322  and  _324
REMARK  132  A    between atoms: _324  and  _325
REMARK  133  A    between atoms: _324  and  _327
REMARK  134  A    between atoms: _327  and  _328
REMARK  135  A    between atoms: _331  and  _333
REMARK  136  A    between atoms: _333  and  _334
REMARK  137  A    between atoms: _337  and  _339
REMARK  138  A    between atoms: _339  and  _340
REMARK  139  A    between atoms: _343  and  _345
REMARK  140  A    between atoms: _345  and  _346
REMARK  141  A    between atoms: _345  and  _348
REMARK  142  A    between atoms: _348  and  _349
REMARK  143  A    between atoms: _349  and  _350
REMARK  144  A    between atoms: _350  and  _351
REMARK  145  A    between atoms: _360  and  _362
REMARK  146  A    between atoms: _362  and  _363
REMARK  147  A    between atoms: _362  and  _365
REMARK  148  A    between atoms: _365  and  _366
REMARK  149  A    between atoms: _371  and  _373
REMARK  150  A    between atoms: _373  and  _374
REMARK  151  A    between atoms: _373  and  _376
REMARK  152  A    between atoms: _378  and  _380
REMARK  153  A    between atoms: _380  and  _381
REMARK  154  A    between atoms: _380  and  _383
REMARK  155  A    between atoms: _383  and  _384
REMARK  156  A    between atoms: _384  and  _385
REMARK  157  A    between atoms: _387  and  _389
REMARK  158  A    between atoms: _389  and  _390
REMARK  159  A    between atoms: _389  and  _392
REMARK  160  A    between atoms: _392  and  _393
REMARK  161  A    between atoms: _396  and  _398
REMARK  162  A    between atoms: _398  and  _399
REMARK  163  A    between atoms: _398  and  _401
REMARK  164  A    between atoms: _401  and  _402
REMARK  165  A    between atoms: _405  and  _407
REMARK  166  A    between atoms: _407  and  _408
REMARK  167  A    between atoms: _407  and  _410
REMARK  168  A    between atoms: _410  and  _411
REMARK  169  A    between atoms: _411  and  _412
REMARK  170  A    between atoms: _412  and  _413
REMARK  171  A    between atoms: _413  and  _414
REMARK  172  A    between atoms: _418  and  _420
REMARK  173  A    between atoms: _420  and  _421
REMARK  174  A    between atoms: _420  and  _423
REMARK  175  A    between atoms: _426  and  _428
REMARK  176  A    between atoms: _428  and  _429
REMARK  177  A    between atoms: _432  and  _434
REMARK  178  A    between atoms: _434  and  _435
REMARK  179  A    between atoms: _434  and  _437
REMARK  180  A    between atoms: _437  and  _438
REMARK  181  A    between atoms: _441  and  _443
REMARK  182  A    between atoms: _443  and  _444
REMARK  183  A    between atoms: _443  and  _446
REMARK  184  A    between atoms: _446  and  _447
REMARK  185  A    between atoms: _453  and  _455
REMARK  186  A    between atoms: _455  and  _456
REMARK  187  A    between atoms: _455  and  _458
REMARK  188  A    between atoms: _458  and  _459
REMARK  189  A    between atoms: _462  and  _464
REMARK  190  A    between atoms: _464  and  _465
REMARK  191  A    between atoms: _468  and  _470
REMARK  192  A    between atoms: _470  and  _471
REMARK  193  A    between atoms: _470  and  _473
REMARK  194  A    between atoms: _473  and  _474
REMARK  195  A    between atoms: _474  and  _475
REMARK  196  A    between atoms: _475  and  _476
REMARK  197  A    between atoms: _485  and  _487
REMARK  198  A    between atoms: _487  and  _488
REMARK  199  A    between atoms: _487  and  _490
REMARK  200  A    between atoms: _490  and  _491
REMARK  201  A    between atoms: _494  and  _496
REMARK  202  A    between atoms: _496  and  _497
REMARK  203  A    between atoms: _496  and  _499
REMARK  204  A    between atoms: _499  and  _500
REMARK  205  A    between atoms: _500  and  _501
REMARK  206  A    between atoms: _503  and  _505
REMARK  207  A    between atoms: _505  and  _506
REMARK  208  A    between atoms: _505  and  _508
REMARK  209  A    between atoms: _508  and  _509
REMARK  210  A    between atoms: _514  and  _515
REMARK  211  A    between atoms: _517  and  _519
REMARK  212  A    between atoms: _519  and  _520
REMARK  213  A    between atoms: _519  and  _522
REMARK  214  A    between atoms: _522  and  _523
REMARK  215  A    between atoms: _526  and  _528
REMARK  216  A    between atoms: _528  and  _529
REMARK  217  A    between atoms: _528  and  _531
REMARK  218  A    between atoms: _531  and  _532
REMARK  219  A    between atoms: _537  and  _538
REMARK                            x       y       z     vdW  Elec       q    Type
REMARK                         _______ _______ _______ _____ _____    ______ ____
ROOT
ATOM      1  O   HOH     1      16.393  76.014  -3.809  0.00  0.00    +0.000 OA
ENDROOT
TORSDOF 0
REMARK  Name = ../refined-set-2016/4aoi/4aoi_pocket.pdb
REMARK  219 active torsions:
REMARK  status: ('A' for Active; 'I' for Inactive)
REMARK    1  A    between atoms: _1  and  _3
REMARK    2  A    between atoms: _3  and  _4
REMARK    3  A    between atoms: _3  and  _6
REMARK    4  A    between atoms: _9  and  _11
REMARK    5  A    between atoms: _11  and  _12
REMARK    6  A    between atoms: _11  and  _14
REMARK    7  A    between atoms: _14  and  _15
REMARK    8  A    between atoms: _18  and  _20
REMARK    9  A    between atoms: _20  and  _21
REMARK   10  A    between atoms: _23  and  _25
REMARK   11  A    between atoms: _25  and  _26
REMARK   12  A    between atoms: _25  and  _28
REMARK   13  A    between atoms: _28  and  _29
REMARK   14  A    between atoms: _29  and  _30
REMARK   15  A    between atoms: _30  and  _31
REMARK   16  A    between atoms: _40  and  _42
REMARK   17  A    between atoms: _42  and  _43
REMARK   18  A    between atoms: _45  and  _47
REMARK   19  A    between atoms: _47  and  _48
REMARK   20  A    between atoms: _47  and  _50
REMARK   21  A    between atoms: _52  and  _54
REMARK   22  A    between atoms: _54  and  _55
REMARK   23  A    between atoms: _54  and  _57
REMARK   24  A    between atoms: _60  and  _62
REMARK   25  A    between atoms: _62  and  _63
REMARK   26  A    between atoms: _62  and  _65
REMARK   27  A    between atoms: _65  and  _66
REMARK   28  A    between atoms: _71  and  _72
REMARK   29  A    between atoms: _74  and  _76
REMARK   30  A    between atoms: _76  and  _77
REMARK   31  A    between atoms: _76  and  _79
REMARK   32  A    between atoms: _79  and  _80
REMARK   33  A    between atoms: _85  and  _87
REMARK   34  A    between atoms: _87  and  _88
REMARK   35  A    between atoms: _90  and  _92
REMARK   36  A    between atoms: _92  and  _93
REMARK   37  A    between atoms: _92  and  _95
REMARK   38  A    between atoms: _95  and  _96
REMARK   39  A    between atoms: _101  and  _103
REMARK   40  A    between atoms: _103  and  _104
REMARK   41  A    between atoms: _103  and  _106
REMARK   42  A    between atoms: _108  and  _110
REMARK   43  A    between atoms: _110  and  _111
REMARK   44  A    between atoms: _114  and  _116
REMARK   45  A    between atoms: _116  and  _117
REMARK   46  A    between atoms: _116  and  _119
REMARK   47  A    between atoms: _122  and  _124
REMARK   48  A    between atoms: _124  and  _125
REMARK   49  A    between atoms: _124  and  _127
REMARK   50  A    between atoms: _127  and  _128
REMARK   51  A    between atoms: _128  and  _129
REMARK   52  A    between atoms: _129  and  _130
REMARK   53  A    between atoms: _130  and  _131
REMARK   54  A    between atoms: _135  and  _137
REMARK   55  A    between atoms: _137  and  _138
REMARK   56  A    between atoms: _137  and  _140
REMARK   57  A    between atoms: _140  and  _141
REMARK   58  A    between atoms: _143  and  _145
REMARK   59  A    between atoms: _145  and  _146
REMARK   60  A    between atoms: _145  and  _148
REMARK   61  A    between atoms: _148  and  _149
REMARK   62  A    between atoms: _149  and  _150
REMARK   63  A    between atoms: _152  and  _154
REMARK   64  A    between atoms: _154  and  _155
REMARK   65  A    between atoms: _154  and  _157
REMARK   66  A    between atoms: _157  and  _158
REMARK   67  A    between atoms: _161  and  _163
REMARK   68  A    between atoms: _163  and  _164
REMARK   69  A    between atoms: _163  and  _166
REMARK   70  A    between atoms: _166  and  _167
REMARK   71  A    between atoms: _169  and  _171
REMARK   72  A    between atoms: _171  and  _172
REMARK   73  A    between atoms: _171  and  _174
REMARK   74  A    between atoms: _177  and  _179
REMARK   75  A    between atoms: _179  and  _180
REMARK   76  A    between atoms: _179  and  _182
REMARK   77  A    between atoms: _185  and  _187
REMARK   78  A    between atoms: _187  and  _188
REMARK   79  A    between atoms: _187  and  _190
REMARK   80  A    between atoms: _190  and  _191
REMARK   81  A    between atoms: _195  and  _196
REMARK   82  A    between atoms: _201  and  _203
REMARK   83  A    between atoms: _203  and  _204
REMARK   84  A    between atoms: _203  and  _206
REMARK   85  A    between atoms: _206  and  _207
REMARK   86  A    between atoms: _212  and  _213
REMARK   87  A    between atoms: _215  and  _217
REMARK   88  A    between atoms: _217  and  _218
REMARK   89  A    between atoms: _217  and  _220
REMARK   90  A    between atoms: _220  and  _221
REMARK   91  A    between atoms: _221  and  _222
REMARK   92  A    between atoms: _224  and  _226
REMARK   93  A    between atoms: _226  and  _227
REMARK   94  A    between atoms: _226  and  _229
REMARK   95  A    between atoms: _229  and  _230
REMARK   96  A    between atoms: _230  and  _231
REMARK   97  A    between atoms: _231  and  _232
REMARK   98  A    between atoms: _232  and  _233
REMARK   99  A    between atoms: _237  and  _239
REMARK  100  A    between atoms: _239  and  _240
REMARK  101  A    between atoms: _239  and  _242
REMARK  102  A    between atoms: _242  and  _243
REMARK  103  A    between atoms: _248  and  _250
REMARK  104  A    between atoms: _250  and  _251
REMARK  105  A    between atoms: _253  and  _255
REMARK  106  A    between atoms: _255  and  _256
REMARK  107  A    between atoms: _255  and  _258
REMARK  108  A    between atoms: _258  and  _259
REMARK  109  A    between atoms: _262  and  _264
REMARK  110  A    between atoms: _264  and  _265
REMARK  111  A    between atoms: _264  and  _267
REMARK  112  A    between atoms: _267  and  _268
REMARK  113  A    between atoms: _271  and  _273
REMARK  114  A    between atoms: _273  and  _274
REMARK  115  A    between atoms: _273  and  _276
REMARK  116  A    between atoms: _276  and  _277
REMARK  117  A    between atoms: _277  and  _278
REMARK  118  A    between atoms: _278  and  _279
REMARK  119  A    between atoms: _288  and  _290
REMARK  120  A    between atoms: _290  and  _291
REMARK  121  A    between atoms: _290  and  _293
REMARK  122  A    between atoms: _293  and  _294
REMARK  123  A    between atoms: _299  and  _301
REMARK  124  A    between atoms: _301  and  _302
REMARK  125  A    between atoms: _301  and  _304
REMARK  126  A    between atoms: _304  and  _305
REMARK  127  A    between atoms: _311  and  _313
REMARK  128  A    between atoms: _313  and  _314
REMARK  129  A    between atoms: _313  and  _316
REMARK  130  A    between atoms: _316  and  _317
REMARK  131  A    between atoms: _322  and  _324
REMARK  132  A    between atoms: _324  and  _325
REMARK  133  A    between atoms: _324  and  _327
REMARK  134  A    between atoms: _327  and  _328
REMARK  135  A    between atoms: _331  and  _333
REMARK  136  A    between atoms: _333  and  _334
REMARK  137  A    between atoms: _337  and  _339
REMARK  138  A    between atoms: _339  and  _340
REMARK  139  A    between atoms: _343  and  _345
REMARK  140  A    between atoms: _345  and  _346
REMARK  141  A    between atoms: _345  and  _348
REMARK  142  A    between atoms: _348  and  _349
REMARK  143  A    between atoms: _349  and  _350
REMARK  144  A    between atoms: _350  and  _351
REMARK  145  A    between atoms: _360  and  _362
REMARK  146  A    between atoms: _362  and  _363
REMARK  147  A    between atoms: _362  and  _365
REMARK  148  A    between atoms: _365  and  _366
REMARK  149  A    between atoms: _371  and  _373
REMARK  150  A    between atoms: _373  and  _374
REMARK  151  A    between atoms: _373  and  _376
REMARK  152  A    between atoms: _378  and  _380
REMARK  153  A    between atoms: _380  and  _381
REMARK  154  A    between atoms: _380  and  _383
REMARK  155  A    between atoms: _383  and  _384
REMARK  156  A    between atoms: _384  and  _385
REMARK  157  A    between atoms: _387  and  _389
REMARK  158  A    between atoms: _389  and  _390
REMARK  159  A    between atoms: _389  and  _392
REMARK  160  A    between atoms: _392  and  _393
REMARK  161  A    between atoms: _396  and  _398
REMARK  162  A    between atoms: _398  and  _399
REMARK  163  A    between atoms: _398  and  _401
REMARK  164  A    between atoms: _401  and  _402
REMARK  165  A    between atoms: _405  and  _407
REMARK  166  A    between atoms: _407  and  _408
REMARK  167  A    between atoms: _407  and  _410
REMARK  168  A    between atoms: _410  and  _411
REMARK  169  A    between atoms: _411  and  _412
REMARK  170  A    between atoms: _412  and  _413
REMARK  171  A    between atoms: _413  and  _414
REMARK  172  A    between atoms: _418  and  _420
REMARK  173  A    between atoms: _420  and  _421
REMARK  174  A    between atoms: _420  and  _423
REMARK  175  A    between atoms: _426  and  _428
REMARK  176  A    between atoms: _428  and  _429
REMARK  177  A    between atoms: _432  and  _434
REMARK  178  A    between atoms: _434  and  _435
REMARK  179  A    between atoms: _434  and  _437
REMARK  180  A    between atoms: _437  and  _438
REMARK  181  A    between atoms: _441  and  _443
REMARK  182  A    between atoms: _443  and  _444
REMARK  183  A    between atoms: _443  and  _446
REMARK  184  A    between atoms: _446  and  _447
REMARK  185  A    between atoms: _453  and  _455
REMARK  186  A    between atoms: _455  and  _456
REMARK  187  A    between atoms: _455  and  _458
REMARK  188  A    between atoms: _458  and  _459
REMARK  189  A    between atoms: _462  and  _464
REMARK  190  A    between atoms: _464  and  _465
REMARK  191  A    between atoms: _468  and  _470
REMARK  192  A    between atoms: _470  and  _471
REMARK  193  A    between atoms: _470  and  _473
REMARK  194  A    between atoms: _473  and  _474
REMARK  195  A    between atoms: _474  and  _475
REMARK  196  A    between atoms: _475  and  _476
REMARK  197  A    between atoms: _485  and  _487
REMARK  198  A    between atoms: _487  and  _488
REMARK  199  A    between atoms: _487  and  _490
REMARK  200  A    between atoms: _490  and  _491
REMARK  201  A    between atoms: _494  and  _496
REMARK  202  A    between atoms: _496  and  _497
REMARK  203  A    between atoms: _496  and  _499
REMARK  204  A    between atoms: _499  and  _500
REMARK  205  A    between atoms: _500  and  _501
REMARK  206  A    between atoms: _503  and  _505
REMARK  207  A    between atoms: _505  and  _506
REMARK  208  A    between atoms: _505  and  _508
REMARK  209  A    between atoms: _508  and  _509
REMARK  210  A    between atoms: _514  and  _515
REMARK  211  A    between atoms: _517  and  _519
REMARK  212  A    between atoms: _519  and  _520
REMARK  213  A    between atoms: _519  and  _522
REMARK  214  A    between atoms: _522  and  _523
REMARK  215  A    between atoms: _526  and  _528
REMARK  216  A    between atoms: _528  and  _529
REMARK  217  A    between atoms: _528  and  _531
REMARK  218  A    between atoms: _531  and  _532
REMARK  219  A    between atoms: _537  and  _538
REMARK                            x       y       z     vdW  Elec       q    Type
REMARK                         _______ _______ _______ _____ _____    ______ ____
ROOT
ATOM      1  O   HOH     1      15.275  75.156  -0.227  0.00  0.00    +0.000 OA
ENDROOT
TORSDOF 0
REMARK  Name = ../refined-set-2016/4aoi/4aoi_pocket.pdb
REMARK  219 active torsions:
REMARK  status: ('A' for Active; 'I' for Inactive)
REMARK    1  A    between atoms: _1  and  _3
REMARK    2  A    between atoms: _3  and  _4
REMARK    3  A    between atoms: _3  and  _6
REMARK    4  A    between atoms: _9  and  _11
REMARK    5  A    between atoms: _11  and  _12
REMARK    6  A    between atoms: _11  and  _14
REMARK    7  A    between atoms: _14  and  _15
REMARK    8  A    between atoms: _18  and  _20
REMARK    9  A    between atoms: _20  and  _21
REMARK   10  A    between atoms: _23  and  _25
REMARK   11  A    between atoms: _25  and  _26
REMARK   12  A    between atoms: _25  and  _28
REMARK   13  A    between atoms: _28  and  _29
REMARK   14  A    between atoms: _29  and  _30
REMARK   15  A    between atoms: _30  and  _31
REMARK   16  A    between atoms: _40  and  _42
REMARK   17  A    between atoms: _42  and  _43
REMARK   18  A    between atoms: _45  and  _47
REMARK   19  A    between atoms: _47  and  _48
REMARK   20  A    between atoms: _47  and  _50
REMARK   21  A    between atoms: _52  and  _54
REMARK   22  A    between atoms: _54  and  _55
REMARK   23  A    between atoms: _54  and  _57
REMARK   24  A    between atoms: _60  and  _62
REMARK   25  A    between atoms: _62  and  _63
REMARK   26  A    between atoms: _62  and  _65
REMARK   27  A    between atoms: _65  and  _66
REMARK   28  A    between atoms: _71  and  _72
REMARK   29  A    between atoms: _74  and  _76
REMARK   30  A    between atoms: _76  and  _77
REMARK   31  A    between atoms: _76  and  _79
REMARK   32  A    between atoms: _79  and  _80
REMARK   33  A    between atoms: _85  and  _87
REMARK   34  A    between atoms: _87  and  _88
REMARK   35  A    between atoms: _90  and  _92
REMARK   36  A    between atoms: _92  and  _93
REMARK   37  A    between atoms: _92  and  _95
REMARK   38  A    between atoms: _95  and  _96
REMARK   39  A    between atoms: _101  and  _103
REMARK   40  A    between atoms: _103  and  _104
REMARK   41  A    between atoms: _103  and  _106
REMARK   42  A    between atoms: _108  and  _110
REMARK   43  A    between atoms: _110  and  _111
REMARK   44  A    between atoms: _114  and  _116
REMARK   45  A    between atoms: _116  and  _117
REMARK   46  A    between atoms: _116  and  _119
REMARK   47  A    between atoms: _122  and  _124
REMARK   48  A    between atoms: _124  and  _125
REMARK   49  A    between atoms: _124  and  _127
REMARK   50  A    between atoms: _127  and  _128
REMARK   51  A    between atoms: _128  and  _129
REMARK   52  A    between atoms: _129  and  _130
REMARK   53  A    between atoms: _130  and  _131
REMARK   54  A    between atoms: _135  and  _137
REMARK   55  A    between atoms: _137  and  _138
REMARK   56  A    between atoms: _137  and  _140
REMARK   57  A    between atoms: _140  and  _141
REMARK   58  A    between atoms: _143  and  _145
REMARK   59  A    between atoms: _145  and  _146
REMARK   60  A    between atoms: _145  and  _148
REMARK   61  A    between atoms: _148  and  _149
REMARK   62  A    between atoms: _149  and  _150
REMARK   63  A    between atoms: _152  and  _154
REMARK   64  A    between atoms: _154  and  _155
REMARK   65  A    between atoms: _154  and  _157
REMARK   66  A    between atoms: _157  and  _158
REMARK   67  A    between atoms: _161  and  _163
REMARK   68  A    between atoms: _163  and  _164
REMARK   69  A    between atoms: _163  and  _166
REMARK   70  A    between atoms: _166  and  _167
REMARK   71  A    between atoms: _169  and  _171
REMARK   72  A    between atoms: _171  and  _172
REMARK   73  A    between atoms: _171  and  _174
REMARK   74  A    between atoms: _177  and  _179
REMARK   75  A    between atoms: _179  and  _180
REMARK   76  A    between atoms: _179  and  _182
REMARK   77  A    between atoms: _185  and  _187
REMARK   78  A    between atoms: _187  and  _188
REMARK   79  A    between atoms: _187  and  _190
REMARK   80  A    between atoms: _190  and  _191
REMARK   81  A    between atoms: _195  and  _196
REMARK   82  A    between atoms: _201  and  _203
REMARK   83  A    between atoms: _203  and  _204
REMARK   84  A    between atoms: _203  and  _206
REMARK   85  A    between atoms: _206  and  _207
REMARK   86  A    between atoms: _212  and  _213
REMARK   87  A    between atoms: _215  and  _217
REMARK   88  A    between atoms: _217  and  _218
REMARK   89  A    between atoms: _217  and  _220
REMARK   90  A    between atoms: _220  and  _221
REMARK   91  A    between atoms: _221  and  _222
REMARK   92  A    between atoms: _224  and  _226
REMARK   93  A    between atoms: _226  and  _227
REMARK   94  A    between atoms: _226  and  _229
REMARK   95  A    between atoms: _229  and  _230
REMARK   96  A    between atoms: _230  and  _231
REMARK   97  A    between atoms: _231  and  _232
REMARK   98  A    between atoms: _232  and  _233
REMARK   99  A    between atoms: _237  and  _239
REMARK  100  A    between atoms: _239  and  _240
REMARK  101  A    between atoms: _239  and  _242
REMARK  102  A    between atoms: _242  and  _243
REMARK  103  A    between atoms: _248  and  _250
REMARK  104  A    between atoms: _250  and  _251
REMARK  105  A    between atoms: _253  and  _255
REMARK  106  A    between atoms: _255  and  _256
REMARK  107  A    between atoms: _255  and  _258
REMARK  108  A    between atoms: _258  and  _259
REMARK  109  A    between atoms: _262  and  _264
REMARK  110  A    between atoms: _264  and  _265
REMARK  111  A    between atoms: _264  and  _267
REMARK  112  A    between atoms: _267  and  _268
REMARK  113  A    between atoms: _271  and  _273
REMARK  114  A    between atoms: _273  and  _274
REMARK  115  A    between atoms: _273  and  _276
REMARK  116  A    between atoms: _276  and  _277
REMARK  117  A    between atoms: _277  and  _278
REMARK  118  A    between atoms: _278  and  _279
REMARK  119  A    between atoms: _288  and  _290
REMARK  120  A    between atoms: _290  and  _291
REMARK  121  A    between atoms: _290  and  _293
REMARK  122  A    between atoms: _293  and  _294
REMARK  123  A    between atoms: _299  and  _301
REMARK  124  A    between atoms: _301  and  _302
REMARK  125  A    between atoms: _301  and  _304
REMARK  126  A    between atoms: _304  and  _305
REMARK  127  A    between atoms: _311  and  _313
REMARK  128  A    between atoms: _313  and  _314
REMARK  129  A    between atoms: _313  and  _316
REMARK  130  A    between atoms: _316  and  _317
REMARK  131  A    between atoms: _322  and  _324
REMARK  132  A    between atoms: _324  and  _325
REMARK  133  A    between atoms: _324  and  _327
REMARK  134  A    between atoms: _327  and  _328
REMARK  135  A    between atoms: _331  and  _333
REMARK  136  A    between atoms: _333  and  _334
REMARK  137  A    between atoms: _337  and  _339
REMARK  138  A    between atoms: _339  and  _340
REMARK  139  A    between atoms: _343  and  _345
REMARK  140  A    between atoms: _345  and  _346
REMARK  141  A    between atoms: _345  and  _348
REMARK  142  A    between atoms: _348  and  _349
REMARK  143  A    between atoms: _349  and  _350
REMARK  144  A    between atoms: _350  and  _351
REMARK  145  A    between atoms: _360  and  _362
REMARK  146  A    between atoms: _362  and  _363
REMARK  147  A    between atoms: _362  and  _365
REMARK  148  A    between atoms: _365  and  _366
REMARK  149  A    between atoms: _371  and  _373
REMARK  150  A    between atoms: _373  and  _374
REMARK  151  A    between atoms: _373  and  _376
REMARK  152  A    between atoms: _378  and  _380
REMARK  153  A    between atoms: _380  and  _381
REMARK  154  A    between atoms: _380  and  _383
REMARK  155  A    between atoms: _383  and  _384
REMARK  156  A    between atoms: _384  and  _385
REMARK  157  A    between atoms: _387  and  _389
REMARK  158  A    between atoms: _389  and  _390
REMARK  159  A    between atoms: _389  and  _392
REMARK  160  A    between atoms: _392  and  _393
REMARK  161  A    between atoms: _396  and  _398
REMARK  162  A    between atoms: _398  and  _399
REMARK  163  A    between atoms: _398  and  _401
REMARK  164  A    between atoms: _401  and  _402
REMARK  165  A    between atoms: _405  and  _407
REMARK  166  A    between atoms: _407  and  _408
REMARK  167  A    between atoms: _407  and  _410
REMARK  168  A    between atoms: _410  and  _411
REMARK  169  A    between atoms: _411  and  _412
REMARK  170  A    between atoms: _412  and  _413
REMARK  171  A    between atoms: _413  and  _414
REMARK  172  A    between atoms: _418  and  _420
REMARK  173  A    between atoms: _420  and  _421
REMARK  174  A    between atoms: _420  and  _423
REMARK  175  A    between atoms: _426  and  _428
REMARK  176  A    between atoms: _428  and  _429
REMARK  177  A    between atoms: _432  and  _434
REMARK  178  A    between atoms: _434  and  _435
REMARK  179  A    between atoms: _434  and  _437
REMARK  180  A    between atoms: _437  and  _438
REMARK  181  A    between atoms: _441  and  _443
REMARK  182  A    between atoms: _443  and  _444
REMARK  183  A    between atoms: _443  and  _446
REMARK  184  A    between atoms: _446  and  _447
REMARK  185  A    between atoms: _453  and  _455
REMARK  186  A    between atoms: _455  and  _456
REMARK  187  A    between atoms: _455  and  _458
REMARK  188  A    between atoms: _458  and  _459
REMARK  189  A    between atoms: _462  and  _464
REMARK  190  A    between atoms: _464  and  _465
REMARK  191  A    between atoms: _468  and  _470
REMARK  192  A    between atoms: _470  and  _471
REMARK  193  A    between atoms: _470  and  _473
REMARK  194  A    between atoms: _473  and  _474
REMARK  195  A    between atoms: _474  and  _475
REMARK  196  A    between atoms: _475  and  _476
REMARK  197  A    between atoms: _485  and  _487
REMARK  198  A    between atoms: _487  and  _488
REMARK  199  A    between atoms: _487  and  _490
REMARK  200  A    between atoms: _490  and  _491
REMARK  201  A    between atoms: _494  and  _496
REMARK  202  A    between atoms: _496  and  _497
REMARK  203  A    between atoms: _496  and  _499
REMARK  204  A    between atoms: _499  and  _500
REMARK  205  A    between atoms: _500  and  _501
REMARK  206  A    between atoms: _503  and  _505
REMARK  207  A    between atoms: _505  and  _506
REMARK  208  A    between atoms: _505  and  _508
REMARK  209  A    between atoms: _508  and  _509
REMARK  210  A    between atoms: _514  and  _515
REMARK  211  A    between atoms: _517  and  _519
REMARK  212  A    between atoms: _519  and  _520
REMARK  213  A    between atoms: _519  and  _522
REMARK  214  A    between atoms: _522  and  _523
REMARK  215  A    between atoms: _526  and  _528
REMARK  216  A    between atoms: _528  and  _529
REMARK  217  A    between atoms: _528  and  _531
REMARK  218  A    between atoms: _531  and  _532
REMARK  219  A    between atoms: _537  and  _538
REMARK                            x       y       z     vdW  Elec       q    Type
REMARK                         _______ _______ _______ _____ _____    ______ ____
ROOT
ATOM      1  O   HOH     1      21.415  73.877  -5.054  0.00  0.00    +0.000 OA
ENDROOT
TORSDOF 0
REMARK  Name = ../refined-set-2016/4aoi/4aoi_pocket.pdb
REMARK  219 active torsions:
REMARK  status: ('A' for Active; 'I' for Inactive)
REMARK    1  A    between atoms: _1  and  _3
REMARK    2  A    between atoms: _3  and  _4
REMARK    3  A    between atoms: _3  and  _6
REMARK    4  A    between atoms: _9  and  _11
REMARK    5  A    between atoms: _11  and  _12
REMARK    6  A    between atoms: _11  and  _14
REMARK    7  A    between atoms: _14  and  _15
REMARK    8  A    between atoms: _18  and  _20
REMARK    9  A    between atoms: _20  and  _21
REMARK   10  A    between atoms: _23  and  _25
REMARK   11  A    between atoms: _25  and  _26
REMARK   12  A    between atoms: _25  and  _28
REMARK   13  A    between atoms: _28  and  _29
REMARK   14  A    between atoms: _29  and  _30
REMARK   15  A    between atoms: _30  and  _31
REMARK   16  A    between atoms: _40  and  _42
REMARK   17  A    between atoms: _42  and  _43
REMARK   18  A    between atoms: _45  and  _47
REMARK   19  A    between atoms: _47  and  _48
REMARK   20  A    between atoms: _47  and  _50
REMARK   21  A    between atoms: _52  and  _54
REMARK   22  A    between atoms: _54  and  _55
REMARK   23  A    between atoms: _54  and  _57
REMARK   24  A    between atoms: _60  and  _62
REMARK   25  A    between atoms: _62  and  _63
REMARK   26  A    between atoms: _62  and  _65
REMARK   27  A    between atoms: _65  and  _66
REMARK   28  A    between atoms: _71  and  _72
REMARK   29  A    between atoms: _74  and  _76
REMARK   30  A    between atoms: _76  and  _77
REMARK   31  A    between atoms: _76  and  _79
REMARK   32  A    between atoms: _79  and  _80
REMARK   33  A    between atoms: _85  and  _87
REMARK   34  A    between atoms: _87  and  _88
REMARK   35  A    between atoms: _90  and  _92
REMARK   36  A    between atoms: _92  and  _93
REMARK   37  A    between atoms: _92  and  _95
REMARK   38  A    between atoms: _95  and  _96
REMARK   39  A    between atoms: _101  and  _103
REMARK   40  A    between atoms: _103  and  _104
REMARK   41  A    between atoms: _103  and  _106
REMARK   42  A    between atoms: _108  and  _110
REMARK   43  A    between atoms: _110  and  _111
REMARK   44  A    between atoms: _114  and  _116
REMARK   45  A    between atoms: _116  and  _117
REMARK   46  A    between atoms: _116  and  _119
REMARK   47  A    between atoms: _122  and  _124
REMARK   48  A    between atoms: _124  and  _125
REMARK   49  A    between atoms: _124  and  _127
REMARK   50  A    between atoms: _127  and  _128
REMARK   51  A    between atoms: _128  and  _129
REMARK   52  A    between atoms: _129  and  _130
REMARK   53  A    between atoms: _130  and  _131
REMARK   54  A    between atoms: _135  and  _137
REMARK   55  A    between atoms: _137  and  _138
REMARK   56  A    between atoms: _137  and  _140
REMARK   57  A    between atoms: _140  and  _141
REMARK   58  A    between atoms: _143  and  _145
REMARK   59  A    between atoms: _145  and  _146
REMARK   60  A    between atoms: _145  and  _148
REMARK   61  A    between atoms: _148  and  _149
REMARK   62  A    between atoms: _149  and  _150
REMARK   63  A    between atoms: _152  and  _154
REMARK   64  A    between atoms: _154  and  _155
REMARK   65  A    between atoms: _154  and  _157
REMARK   66  A    between atoms: _157  and  _158
REMARK   67  A    between atoms: _161  and  _163
REMARK   68  A    between atoms: _163  and  _164
REMARK   69  A    between atoms: _163  and  _166
REMARK   70  A    between atoms: _166  and  _167
REMARK   71  A    between atoms: _169  and  _171
REMARK   72  A    between atoms: _171  and  _172
REMARK   73  A    between atoms: _171  and  _174
REMARK   74  A    between atoms: _177  and  _179
REMARK   75  A    between atoms: _179  and  _180
REMARK   76  A    between atoms: _179  and  _182
REMARK   77  A    between atoms: _185  and  _187
REMARK   78  A    between atoms: _187  and  _188
REMARK   79  A    between atoms: _187  and  _190
REMARK   80  A    between atoms: _190  and  _191
REMARK   81  A    between atoms: _195  and  _196
REMARK   82  A    between atoms: _201  and  _203
REMARK   83  A    between atoms: _203  and  _204
REMARK   84  A    between atoms: _203  and  _206
REMARK   85  A    between atoms: _206  and  _207
REMARK   86  A    between atoms: _212  and  _213
REMARK   87  A    between atoms: _215  and  _217
REMARK   88  A    between atoms: _217  and  _218
REMARK   89  A    between atoms: _217  and  _220
REMARK   90  A    between atoms: _220  and  _221
REMARK   91  A    between atoms: _221  and  _222
REMARK   92  A    between atoms: _224  and  _226
REMARK   93  A    between atoms: _226  and  _227
REMARK   94  A    between atoms: _226  and  _229
REMARK   95  A    between atoms: _229  and  _230
REMARK   96  A    between atoms: _230  and  _231
REMARK   97  A    between atoms: _231  and  _232
REMARK   98  A    between atoms: _232  and  _233
REMARK   99  A    between atoms: _237  and  _239
REMARK  100  A    between atoms: _239  and  _240
REMARK  101  A    between atoms: _239  and  _242
REMARK  102  A    between atoms: _242  and  _243
REMARK  103  A    between atoms: _248  and  _250
REMARK  104  A    between atoms: _250  and  _251
REMARK  105  A    between atoms: _253  and  _255
REMARK  106  A    between atoms: _255  and  _256
REMARK  107  A    between atoms: _255  and  _258
REMARK  108  A    between atoms: _258  and  _259
REMARK  109  A    between atoms: _262  and  _264
REMARK  110  A    between atoms: _264  and  _265
REMARK  111  A    between atoms: _264  and  _267
REMARK  112  A    between atoms: _267  and  _268
REMARK  113  A    between atoms: _271  and  _273
REMARK  114  A    between atoms: _273  and  _274
REMARK  115  A    between atoms: _273  and  _276
REMARK  116  A    between atoms: _276  and  _277
REMARK  117  A    between atoms: _277  and  _278
REMARK  118  A    between atoms: _278  and  _279
REMARK  119  A    between atoms: _288  and  _290
REMARK  120  A    between atoms: _290  and  _291
REMARK  121  A    between atoms: _290  and  _293
REMARK  122  A    between atoms: _293  and  _294
REMARK  123  A    between atoms: _299  and  _301
REMARK  124  A    between atoms: _301  and  _302
REMARK  125  A    between atoms: _301  and  _304
REMARK  126  A    between atoms: _304  and  _305
REMARK  127  A    between atoms: _311  and  _313
REMARK  128  A    between atoms: _313  and  _314
REMARK  129  A    between atoms: _313  and  _316
REMARK  130  A    between atoms: _316  and  _317
REMARK  131  A    between atoms: _322  and  _324
REMARK  132  A    between atoms: _324  and  _325
REMARK  133  A    between atoms: _324  and  _327
REMARK  134  A    between atoms: _327  and  _328
REMARK  135  A    between atoms: _331  and  _333
REMARK  136  A    between atoms: _333  and  _334
REMARK  137  A    between atoms: _337  and  _339
REMARK  138  A    between atoms: _339  and  _340
REMARK  139  A    between atoms: _343  and  _345
REMARK  140  A    between atoms: _345  and  _346
REMARK  141  A    between atoms: _345  and  _348
REMARK  142  A    between atoms: _348  and  _349
REMARK  143  A    between atoms: _349  and  _350
REMARK  144  A    between atoms: _350  and  _351
REMARK  145  A    between atoms: _360  and  _362
REMARK  146  A    between atoms: _362  and  _363
REMARK  147  A    between atoms: _362  and  _365
REMARK  148  A    between atoms: _365  and  _366
REMARK  149  A    between atoms: _371  and  _373
REMARK  150  A    between atoms: _373  and  _374
REMARK  151  A    between atoms: _373  and  _376
REMARK  152  A    between atoms: _378  and  _380
REMARK  153  A    between atoms: _380  and  _381
REMARK  154  A    between atoms: _380  and  _383
REMARK  155  A    between atoms: _383  and  _384
REMARK  156  A    between atoms: _384  and  _385
REMARK  157  A    between atoms: _387  and  _389
REMARK  158  A    between atoms: _389  and  _390
REMARK  159  A    between atoms: _389  and  _392
REMARK  160  A    between atoms: _392  and  _393
REMARK  161  A    between atoms: _396  and  _398
REMARK  162  A    between atoms: _398  and  _399
REMARK  163  A    between atoms: _398  and  _401
REMARK  164  A    between atoms: _401  and  _402
REMARK  165  A    between atoms: _405  and  _407
REMARK  166  A    between atoms: _407  and  _408
REMARK  167  A    between atoms: _407  and  _410
REMARK  168  A    between atoms: _410  and  _411
REMARK  169  A    between atoms: _411  and  _412
REMARK  170  A    between atoms: _412  and  _413
REMARK  171  A    between atoms: _413  and  _414
REMARK  172  A    between atoms: _418  and  _420
REMARK  173  A    between atoms: _420  and  _421
REMARK  174  A    between atoms: _420  and  _423
REMARK  175  A    between atoms: _426  and  _428
REMARK  176  A    between atoms: _428  and  _429
REMARK  177  A    between atoms: _432  and  _434
REMARK  178  A    between atoms: _434  and  _435
REMARK  179  A    between atoms: _434  and  _437
REMARK  180  A    between atoms: _437  and  _438
REMARK  181  A    between atoms: _441  and  _443
REMARK  182  A    between atoms: _443  and  _444
REMARK  183  A    between atoms: _443  and  _446
REMARK  184  A    between atoms: _446  and  _447
REMARK  185  A    between atoms: _453  and  _455
REMARK  186  A    between atoms: _455  and  _456
REMARK  187  A    between atoms: _455  and  _458
REMARK  188  A    between atoms: _458  and  _459
REMARK  189  A    between atoms: _462  and  _464
REMARK  190  A    between atoms: _464  and  _465
REMARK  191  A    between atoms: _468  and  _470
REMARK  192  A    between atoms: _470  and  _471
REMARK  193  A    between atoms: _470  and  _473
REMARK  194  A    between atoms: _473  and  _474
REMARK  195  A    between atoms: _474  and  _475
REMARK  196  A    between atoms: _475  and  _476
REMARK  197  A    between atoms: _485  and  _487
REMARK  198  A    between atoms: _487  and  _488
REMARK  199  A    between atoms: _487  and  _490
REMARK  200  A    between atoms: _490  and  _491
REMARK  201  A    between atoms: _494  and  _496
REMARK  202  A    between atoms: _496  and  _497
REMARK  203  A    between atoms: _496  and  _499
REMARK  204  A    between atoms: _499  and  _500
REMARK  205  A    between atoms: _500  and  _501
REMARK  206  A    between atoms: _503  and  _505
REMARK  207  A    between atoms: _505  and  _506
REMARK  208  A    between atoms: _505  and  _508
REMARK  209  A    between atoms: _508  and  _509
REMARK  210  A    between atoms: _514  and  _515
REMARK  211  A    between atoms: _517  and  _519
REMARK  212  A    between atoms: _519  and  _520
REMARK  213  A    between atoms: _519  and  _522
REMARK  214  A    between atoms: _522  and  _523
REMARK  215  A    between atoms: _526  and  _528
REMARK  216  A    between atoms: _528  and  _529
REMARK  217  A    between atoms: _528  and  _531
REMARK  218  A    between atoms: _531  and  _532
REMARK  219  A    between atoms: _537  and  _538
REMARK                            x       y       z     vdW  Elec       q    Type
REMARK                         _______ _______ _______ _____ _____    ______ ____
ROOT
ATOM      1  O   HOH     1      17.504  77.718  -2.274  0.00  0.00    +0.000 OA
ENDROOT
TORSDOF 0
REMARK  Name = ../refined-set-2016/4aoi/4aoi_pocket.pdb
REMARK  219 active torsions:
REMARK  status: ('A' for Active; 'I' for Inactive)
REMARK    1  A    between atoms: _1  and  _3
REMARK    2  A    between atoms: _3  and  _4
REMARK    3  A    between atoms: _3  and  _6
REMARK    4  A    between atoms: _9  and  _11
REMARK    5  A    between atoms: _11  and  _12
REMARK    6  A    between atoms: _11  and  _14
REMARK    7  A    between atoms: _14  and  _15
REMARK    8  A    between atoms: _18  and  _20
REMARK    9  A    between atoms: _20  and  _21
REMARK   10  A    between atoms: _23  and  _25
REMARK   11  A    between atoms: _25  and  _26
REMARK   12  A    between atoms: _25  and  _28
REMARK   13  A    between atoms: _28  and  _29
REMARK   14  A    between atoms: _29  and  _30
REMARK   15  A    between atoms: _30  and  _31
REMARK   16  A    between atoms: _40  and  _42
REMARK   17  A    between atoms: _42  and  _43
REMARK   18  A    between atoms: _45  and  _47
REMARK   19  A    between atoms: _47  and  _48
REMARK   20  A    between atoms: _47  and  _50
REMARK   21  A    between atoms: _52  and  _54
REMARK   22  A    between atoms: _54  and  _55
REMARK   23  A    between atoms: _54  and  _57
REMARK   24  A    between atoms: _60  and  _62
REMARK   25  A    between atoms: _62  and  _63
REMARK   26  A    between atoms: _62  and  _65
REMARK   27  A    between atoms: _65  and  _66
REMARK   28  A    between atoms: _71  and  _72
REMARK   29  A    between atoms: _74  and  _76
REMARK   30  A    between atoms: _76  and  _77
REMARK   31  A    between atoms: _76  and  _79
REMARK   32  A    between atoms: _79  and  _80
REMARK   33  A    between atoms: _85  and  _87
REMARK   34  A    between atoms: _87  and  _88
REMARK   35  A    between atoms: _90  and  _92
REMARK   36  A    between atoms: _92  and  _93
REMARK   37  A    between atoms: _92  and  _95
REMARK   38  A    between atoms: _95  and  _96
REMARK   39  A    between atoms: _101  and  _103
REMARK   40  A    between atoms: _103  and  _104
REMARK   41  A    between atoms: _103  and  _106
REMARK   42  A    between atoms: _108  and  _110
REMARK   43  A    between atoms: _110  and  _111
REMARK   44  A    between atoms: _114  and  _116
REMARK   45  A    between atoms: _116  and  _117
REMARK   46  A    between atoms: _116  and  _119
REMARK   47  A    between atoms: _122  and  _124
REMARK   48  A    between atoms: _124  and  _125
REMARK   49  A    between atoms: _124  and  _127
REMARK   50  A    between atoms: _127  and  _128
REMARK   51  A    between atoms: _128  and  _129
REMARK   52  A    between atoms: _129  and  _130
REMARK   53  A    between atoms: _130  and  _131
REMARK   54  A    between atoms: _135  and  _137
REMARK   55  A    between atoms: _137  and  _138
REMARK   56  A    between atoms: _137  and  _140
REMARK   57  A    between atoms: _140  and  _141
REMARK   58  A    between atoms: _143  and  _145
REMARK   59  A    between atoms: _145  and  _146
REMARK   60  A    between atoms: _145  and  _148
REMARK   61  A    between atoms: _148  and  _149
REMARK   62  A    between atoms: _149  and  _150
REMARK   63  A    between atoms: _152  and  _154
REMARK   64  A    between atoms: _154  and  _155
REMARK   65  A    between atoms: _154  and  _157
REMARK   66  A    between atoms: _157  and  _158
REMARK   67  A    between atoms: _161  and  _163
REMARK   68  A    between atoms: _163  and  _164
REMARK   69  A    between atoms: _163  and  _166
REMARK   70  A    between atoms: _166  and  _167
REMARK   71  A    between atoms: _169  and  _171
REMARK   72  A    between atoms: _171  and  _172
REMARK   73  A    between atoms: _171  and  _174
REMARK   74  A    between atoms: _177  and  _179
REMARK   75  A    between atoms: _179  and  _180
REMARK   76  A    between atoms: _179  and  _182
REMARK   77  A    between atoms: _185  and  _187
REMARK   78  A    between atoms: _187  and  _188
REMARK   79  A    between atoms: _187  and  _190
REMARK   80  A    between atoms: _190  and  _191
REMARK   81  A    between atoms: _195  and  _196
REMARK   82  A    between atoms: _201  and  _203
REMARK   83  A    between atoms: _203  and  _204
REMARK   84  A    between atoms: _203  and  _206
REMARK   85  A    between atoms: _206  and  _207
REMARK   86  A    between atoms: _212  and  _213
REMARK   87  A    between atoms: _215  and  _217
REMARK   88  A    between atoms: _217  and  _218
REMARK   89  A    between atoms: _217  and  _220
REMARK   90  A    between atoms: _220  and  _221
REMARK   91  A    between atoms: _221  and  _222
REMARK   92  A    between atoms: _224  and  _226
REMARK   93  A    between atoms: _226  and  _227
REMARK   94  A    between atoms: _226  and  _229
REMARK   95  A    between atoms: _229  and  _230
REMARK   96  A    between atoms: _230  and  _231
REMARK   97  A    between atoms: _231  and  _232
REMARK   98  A    between atoms: _232  and  _233
REMARK   99  A    between atoms: _237  and  _239
REMARK  100  A    between atoms: _239  and  _240
REMARK  101  A    between atoms: _239  and  _242
REMARK  102  A    between atoms: _242  and  _243
REMARK  103  A    between atoms: _248  and  _250
REMARK  104  A    between atoms: _250  and  _251
REMARK  105  A    between atoms: _253  and  _255
REMARK  106  A    between atoms: _255  and  _256
REMARK  107  A    between atoms: _255  and  _258
REMARK  108  A    between atoms: _258  and  _259
REMARK  109  A    between atoms: _262  and  _264
REMARK  110  A    between atoms: _264  and  _265
REMARK  111  A    between atoms: _264  and  _267
REMARK  112  A    between atoms: _267  and  _268
REMARK  113  A    between atoms: _271  and  _273
REMARK  114  A    between atoms: _273  and  _274
REMARK  115  A    between atoms: _273  and  _276
REMARK  116  A    between atoms: _276  and  _277
REMARK  117  A    between atoms: _277  and  _278
REMARK  118  A    between atoms: _278  and  _279
REMARK  119  A    between atoms: _288  and  _290
REMARK  120  A    between atoms: _290  and  _291
REMARK  121  A    between atoms: _290  and  _293
REMARK  122  A    between atoms: _293  and  _294
REMARK  123  A    between atoms: _299  and  _301
REMARK  124  A    between atoms: _301  and  _302
REMARK  125  A    between atoms: _301  and  _304
REMARK  126  A    between atoms: _304  and  _305
REMARK  127  A    between atoms: _311  and  _313
REMARK  128  A    between atoms: _313  and  _314
REMARK  129  A    between atoms: _313  and  _316
REMARK  130  A    between atoms: _316  and  _317
REMARK  131  A    between atoms: _322  and  _324
REMARK  132  A    between atoms: _324  and  _325
REMARK  133  A    between atoms: _324  and  _327
REMARK  134  A    between atoms: _327  and  _328
REMARK  135  A    between atoms: _331  and  _333
REMARK  136  A    between atoms: _333  and  _334
REMARK  137  A    between atoms: _337  and  _339
REMARK  138  A    between atoms: _339  and  _340
REMARK  139  A    between atoms: _343  and  _345
REMARK  140  A    between atoms: _345  and  _346
REMARK  141  A    between atoms: _345  and  _348
REMARK  142  A    between atoms: _348  and  _349
REMARK  143  A    between atoms: _349  and  _350
REMARK  144  A    between atoms: _350  and  _351
REMARK  145  A    between atoms: _360  and  _362
REMARK  146  A    between atoms: _362  and  _363
REMARK  147  A    between atoms: _362  and  _365
REMARK  148  A    between atoms: _365  and  _366
REMARK  149  A    between atoms: _371  and  _373
REMARK  150  A    between atoms: _373  and  _374
REMARK  151  A    between atoms: _373  and  _376
REMARK  152  A    between atoms: _378  and  _380
REMARK  153  A    between atoms: _380  and  _381
REMARK  154  A    between atoms: _380  and  _383
REMARK  155  A    between atoms: _383  and  _384
REMARK  156  A    between atoms: _384  and  _385
REMARK  157  A    between atoms: _387  and  _389
REMARK  158  A    between atoms: _389  and  _390
REMARK  159  A    between atoms: _389  and  _392
REMARK  160  A    between atoms: _392  and  _393
REMARK  161  A    between atoms: _396  and  _398
REMARK  162  A    between atoms: _398  and  _399
REMARK  163  A    between atoms: _398  and  _401
REMARK  164  A    between atoms: _401  and  _402
REMARK  165  A    between atoms: _405  and  _407
REMARK  166  A    between atoms: _407  and  _408
REMARK  167  A    between atoms: _407  and  _410
REMARK  168  A    between atoms: _410  and  _411
REMARK  169  A    between atoms: _411  and  _412
REMARK  170  A    between atoms: _412  and  _413
REMARK  171  A    between atoms: _413  and  _414
REMARK  172  A    between atoms: _418  and  _420
REMARK  173  A    between atoms: _420  and  _421
REMARK  174  A    between atoms: _420  and  _423
REMARK  175  A    between atoms: _426  and  _428
REMARK  176  A    between atoms: _428  and  _429
REMARK  177  A    between atoms: _432  and  _434
REMARK  178  A    between atoms: _434  and  _435
REMARK  179  A    between atoms: _434  and  _437
REMARK  180  A    between atoms: _437  and  _438
REMARK  181  A    between atoms: _441  and  _443
REMARK  182  A    between atoms: _443  and  _444
REMARK  183  A    between atoms: _443  and  _446
REMARK  184  A    between atoms: _446  and  _447
REMARK  185  A    between atoms: _453  and  _455
REMARK  186  A    between atoms: _455  and  _456
REMARK  187  A    between atoms: _455  and  _458
REMARK  188  A    between atoms: _458  and  _459
REMARK  189  A    between atoms: _462  and  _464
REMARK  190  A    between atoms: _464  and  _465
REMARK  191  A    between atoms: _468  and  _470
REMARK  192  A    between atoms: _470  and  _471
REMARK  193  A    between atoms: _470  and  _473
REMARK  194  A    between atoms: _473  and  _474
REMARK  195  A    between atoms: _474  and  _475
REMARK  196  A    between atoms: _475  and  _476
REMARK  197  A    between atoms: _485  and  _487
REMARK  198  A    between atoms: _487  and  _488
REMARK  199  A    between atoms: _487  and  _490
REMARK  200  A    between atoms: _490  and  _491
REMARK  201  A    between atoms: _494  and  _496
REMARK  202  A    between atoms: _496  and  _497
REMARK  203  A    between atoms: _496  and  _499
REMARK  204  A    between atoms: _499  and  _500
REMARK  205  A    between atoms: _500  and  _501
REMARK  206  A    between atoms: _503  and  _505
REMARK  207  A    between atoms: _505  and  _506
REMARK  208  A    between atoms: _505  and  _508
REMARK  209  A    between atoms: _508  and  _509
REMARK  210  A    between atoms: _514  and  _515
REMARK  211  A    between atoms: _517  and  _519
REMARK  212  A    between atoms: _519  and  _520
REMARK  213  A    between atoms: _519  and  _522
REMARK  214  A    between atoms: _522  and  _523
REMARK  215  A    between atoms: _526  and  _528
REMARK  216  A    between atoms: _528  and  _529
REMARK  217  A    between atoms: _528  and  _531
REMARK  218  A    between atoms: _531  and  _532
REMARK  219  A    between atoms: _537  and  _538
REMARK                            x       y       z     vdW  Elec       q    Type
REMARK                         _______ _______ _______ _____ _____    ______ ____
ROOT
ATOM      1  O   HOH     1      12.858  79.400   4.539  0.00  0.00    +0.000 OA
ENDROOT
TORSDOF 0
REMARK  Name = ../refined-set-2016/4aoi/4aoi_pocket.pdb
REMARK  219 active torsions:
REMARK  status: ('A' for Active; 'I' for Inactive)
REMARK    1  A    between atoms: _1  and  _3
REMARK    2  A    between atoms: _3  and  _4
REMARK    3  A    between atoms: _3  and  _6
REMARK    4  A    between atoms: _9  and  _11
REMARK    5  A    between atoms: _11  and  _12
REMARK    6  A    between atoms: _11  and  _14
REMARK    7  A    between atoms: _14  and  _15
REMARK    8  A    between atoms: _18  and  _20
REMARK    9  A    between atoms: _20  and  _21
REMARK   10  A    between atoms: _23  and  _25
REMARK   11  A    between atoms: _25  and  _26
REMARK   12  A    between atoms: _25  and  _28
REMARK   13  A    between atoms: _28  and  _29
REMARK   14  A    between atoms: _29  and  _30
REMARK   15  A    between atoms: _30  and  _31
REMARK   16  A    between atoms: _40  and  _42
REMARK   17  A    between atoms: _42  and  _43
REMARK   18  A    between atoms: _45  and  _47
REMARK   19  A    between atoms: _47  and  _48
REMARK   20  A    between atoms: _47  and  _50
REMARK   21  A    between atoms: _52  and  _54
REMARK   22  A    between atoms: _54  and  _55
REMARK   23  A    between atoms: _54  and  _57
REMARK   24  A    between atoms: _60  and  _62
REMARK   25  A    between atoms: _62  and  _63
REMARK   26  A    between atoms: _62  and  _65
REMARK   27  A    between atoms: _65  and  _66
REMARK   28  A    between atoms: _71  and  _72
REMARK   29  A    between atoms: _74  and  _76
REMARK   30  A    between atoms: _76  and  _77
REMARK   31  A    between atoms: _76  and  _79
REMARK   32  A    between atoms: _79  and  _80
REMARK   33  A    between atoms: _85  and  _87
REMARK   34  A    between atoms: _87  and  _88
REMARK   35  A    between atoms: _90  and  _92
REMARK   36  A    between atoms: _92  and  _93
REMARK   37  A    between atoms: _92  and  _95
REMARK   38  A    between atoms: _95  and  _96
REMARK   39  A    between atoms: _101  and  _103
REMARK   40  A    between atoms: _103  and  _104
REMARK   41  A    between atoms: _103  and  _106
REMARK   42  A    between atoms: _108  and  _110
REMARK   43  A    between atoms: _110  and  _111
REMARK   44  A    between atoms: _114  and  _116
REMARK   45  A    between atoms: _116  and  _117
REMARK   46  A    between atoms: _116  and  _119
REMARK   47  A    between atoms: _122  and  _124
REMARK   48  A    between atoms: _124  and  _125
REMARK   49  A    between atoms: _124  and  _127
REMARK   50  A    between atoms: _127  and  _128
REMARK   51  A    between atoms: _128  and  _129
REMARK   52  A    between atoms: _129  and  _130
REMARK   53  A    between atoms: _130  and  _131
REMARK   54  A    between atoms: _135  and  _137
REMARK   55  A    between atoms: _137  and  _138
REMARK   56  A    between atoms: _137  and  _140
REMARK   57  A    between atoms: _140  and  _141
REMARK   58  A    between atoms: _143  and  _145
REMARK   59  A    between atoms: _145  and  _146
REMARK   60  A    between atoms: _145  and  _148
REMARK   61  A    between atoms: _148  and  _149
REMARK   62  A    between atoms: _149  and  _150
REMARK   63  A    between atoms: _152  and  _154
REMARK   64  A    between atoms: _154  and  _155
REMARK   65  A    between atoms: _154  and  _157
REMARK   66  A    between atoms: _157  and  _158
REMARK   67  A    between atoms: _161  and  _163
REMARK   68  A    between atoms: _163  and  _164
REMARK   69  A    between atoms: _163  and  _166
REMARK   70  A    between atoms: _166  and  _167
REMARK   71  A    between atoms: _169  and  _171
REMARK   72  A    between atoms: _171  and  _172
REMARK   73  A    between atoms: _171  and  _174
REMARK   74  A    between atoms: _177  and  _179
REMARK   75  A    between atoms: _179  and  _180
REMARK   76  A    between atoms: _179  and  _182
REMARK   77  A    between atoms: _185  and  _187
REMARK   78  A    between atoms: _187  and  _188
REMARK   79  A    between atoms: _187  and  _190
REMARK   80  A    between atoms: _190  and  _191
REMARK   81  A    between atoms: _195  and  _196
REMARK   82  A    between atoms: _201  and  _203
REMARK   83  A    between atoms: _203  and  _204
REMARK   84  A    between atoms: _203  and  _206
REMARK   85  A    between atoms: _206  and  _207
REMARK   86  A    between atoms: _212  and  _213
REMARK   87  A    between atoms: _215  and  _217
REMARK   88  A    between atoms: _217  and  _218
REMARK   89  A    between atoms: _217  and  _220
REMARK   90  A    between atoms: _220  and  _221
REMARK   91  A    between atoms: _221  and  _222
REMARK   92  A    between atoms: _224  and  _226
REMARK   93  A    between atoms: _226  and  _227
REMARK   94  A    between atoms: _226  and  _229
REMARK   95  A    between atoms: _229  and  _230
REMARK   96  A    between atoms: _230  and  _231
REMARK   97  A    between atoms: _231  and  _232
REMARK   98  A    between atoms: _232  and  _233
REMARK   99  A    between atoms: _237  and  _239
REMARK  100  A    between atoms: _239  and  _240
REMARK  101  A    between atoms: _239  and  _242
REMARK  102  A    between atoms: _242  and  _243
REMARK  103  A    between atoms: _248  and  _250
REMARK  104  A    between atoms: _250  and  _251
REMARK  105  A    between atoms: _253  and  _255
REMARK  106  A    between atoms: _255  and  _256
REMARK  107  A    between atoms: _255  and  _258
REMARK  108  A    between atoms: _258  and  _259
REMARK  109  A    between atoms: _262  and  _264
REMARK  110  A    between atoms: _264  and  _265
REMARK  111  A    between atoms: _264  and  _267
REMARK  112  A    between atoms: _267  and  _268
REMARK  113  A    between atoms: _271  and  _273
REMARK  114  A    between atoms: _273  and  _274
REMARK  115  A    between atoms: _273  and  _276
REMARK  116  A    between atoms: _276  and  _277
REMARK  117  A    between atoms: _277  and  _278
REMARK  118  A    between atoms: _278  and  _279
REMARK  119  A    between atoms: _288  and  _290
REMARK  120  A    between atoms: _290  and  _291
REMARK  121  A    between atoms: _290  and  _293
REMARK  122  A    between atoms: _293  and  _294
REMARK  123  A    between atoms: _299  and  _301
REMARK  124  A    between atoms: _301  and  _302
REMARK  125  A    between atoms: _301  and  _304
REMARK  126  A    between atoms: _304  and  _305
REMARK  127  A    between atoms: _311  and  _313
REMARK  128  A    between atoms: _313  and  _314
REMARK  129  A    between atoms: _313  and  _316
REMARK  130  A    between atoms: _316  and  _317
REMARK  131  A    between atoms: _322  and  _324
REMARK  132  A    between atoms: _324  and  _325
REMARK  133  A    between atoms: _324  and  _327
REMARK  134  A    between atoms: _327  and  _328
REMARK  135  A    between atoms: _331  and  _333
REMARK  136  A    between atoms: _333  and  _334
REMARK  137  A    between atoms: _337  and  _339
REMARK  138  A    between atoms: _339  and  _340
REMARK  139  A    between atoms: _343  and  _345
REMARK  140  A    between atoms: _345  and  _346
REMARK  141  A    between atoms: _345  and  _348
REMARK  142  A    between atoms: _348  and  _349
REMARK  143  A    between atoms: _349  and  _350
REMARK  144  A    between atoms: _350  and  _351
REMARK  145  A    between atoms: _360  and  _362
REMARK  146  A    between atoms: _362  and  _363
REMARK  147  A    between atoms: _362  and  _365
REMARK  148  A    between atoms: _365  and  _366
REMARK  149  A    between atoms: _371  and  _373
REMARK  150  A    between atoms: _373  and  _374
REMARK  151  A    between atoms: _373  and  _376
REMARK  152  A    between atoms: _378  and  _380
REMARK  153  A    between atoms: _380  and  _381
REMARK  154  A    between atoms: _380  and  _383
REMARK  155  A    between atoms: _383  and  _384
REMARK  156  A    between atoms: _384  and  _385
REMARK  157  A    between atoms: _387  and  _389
REMARK  158  A    between atoms: _389  and  _390
REMARK  159  A    between atoms: _389  and  _392
REMARK  160  A    between atoms: _392  and  _393
REMARK  161  A    between atoms: _396  and  _398
REMARK  162  A    between atoms: _398  and  _399
REMARK  163  A    between atoms: _398  and  _401
REMARK  164  A    between atoms: _401  and  _402
REMARK  165  A    between atoms: _405  and  _407
REMARK  166  A    between atoms: _407  and  _408
REMARK  167  A    between atoms: _407  and  _410
REMARK  168  A    between atoms: _410  and  _411
REMARK  169  A    between atoms: _411  and  _412
REMARK  170  A    between atoms: _412  and  _413
REMARK  171  A    between atoms: _413  and  _414
REMARK  172  A    between atoms: _418  and  _420
REMARK  173  A    between atoms: _420  and  _421
REMARK  174  A    between atoms: _420  and  _423
REMARK  175  A    between atoms: _426  and  _428
REMARK  176  A    between atoms: _428  and  _429
REMARK  177  A    between atoms: _432  and  _434
REMARK  178  A    between atoms: _434  and  _435
REMARK  179  A    between atoms: _434  and  _437
REMARK  180  A    between atoms: _437  and  _438
REMARK  181  A    between atoms: _441  and  _443
REMARK  182  A    between atoms: _443  and  _444
REMARK  183  A    between atoms: _443  and  _446
REMARK  184  A    between atoms: _446  and  _447
REMARK  185  A    between atoms: _453  and  _455
REMARK  186  A    between atoms: _455  and  _456
REMARK  187  A    between atoms: _455  and  _458
REMARK  188  A    between atoms: _458  and  _459
REMARK  189  A    between atoms: _462  and  _464
REMARK  190  A    between atoms: _464  and  _465
REMARK  191  A    between atoms: _468  and  _470
REMARK  192  A    between atoms: _470  and  _471
REMARK  193  A    between atoms: _470  and  _473
REMARK  194  A    between atoms: _473  and  _474
REMARK  195  A    between atoms: _474  and  _475
REMARK  196  A    between atoms: _475  and  _476
REMARK  197  A    between atoms: _485  and  _487
REMARK  198  A    between atoms: _487  and  _488
REMARK  199  A    between atoms: _487  and  _490
REMARK  200  A    between atoms: _490  and  _491
REMARK  201  A    between atoms: _494  and  _496
REMARK  202  A    between atoms: _496  and  _497
REMARK  203  A    between atoms: _496  and  _499
REMARK  204  A    between atoms: _499  and  _500
REMARK  205  A    between atoms: _500  and  _501
REMARK  206  A    between atoms: _503  and  _505
REMARK  207  A    between atoms: _505  and  _506
REMARK  208  A    between atoms: _505  and  _508
REMARK  209  A    between atoms: _508  and  _509
REMARK  210  A    between atoms: _514  and  _515
REMARK  211  A    between atoms: _517  and  _519
REMARK  212  A    between atoms: _519  and  _520
REMARK  213  A    between atoms: _519  and  _522
REMARK  214  A    between atoms: _522  and  _523
REMARK  215  A    between atoms: _526  and  _528
REMARK  216  A    between atoms: _528  and  _529
REMARK  217  A    between atoms: _528  and  _531
REMARK  218  A    between atoms: _531  and  _532
REMARK  219  A    between atoms: _537  and  _538
REMARK                            x       y       z     vdW  Elec       q    Type
REMARK                         _______ _______ _______ _____ _____    ______ ____
ROOT
ATOM      1  O   HOH     1      15.744  80.014  -2.131  0.00  0.00    +0.000 OA
ENDROOT
TORSDOF 0
REMARK  Name = ../refined-set-2016/4aoi/4aoi_pocket.pdb
REMARK  219 active torsions:
REMARK  status: ('A' for Active; 'I' for Inactive)
REMARK    1  A    between atoms: _1  and  _3
REMARK    2  A    between atoms: _3  and  _4
REMARK    3  A    between atoms: _3  and  _6
REMARK    4  A    between atoms: _9  and  _11
REMARK    5  A    between atoms: _11  and  _12
REMARK    6  A    between atoms: _11  and  _14
REMARK    7  A    between atoms: _14  and  _15
REMARK    8  A    between atoms: _18  and  _20
REMARK    9  A    between atoms: _20  and  _21
REMARK   10  A    between atoms: _23  and  _25
REMARK   11  A    between atoms: _25  and  _26
REMARK   12  A    between atoms: _25  and  _28
REMARK   13  A    between atoms: _28  and  _29
REMARK   14  A    between atoms: _29  and  _30
REMARK   15  A    between atoms: _30  and  _31
REMARK   16  A    between atoms: _40  and  _42
REMARK   17  A    between atoms: _42  and  _43
REMARK   18  A    between atoms: _45  and  _47
REMARK   19  A    between atoms: _47  and  _48
REMARK   20  A    between atoms: _47  and  _50
REMARK   21  A    between atoms: _52  and  _54
REMARK   22  A    between atoms: _54  and  _55
REMARK   23  A    between atoms: _54  and  _57
REMARK   24  A    between atoms: _60  and  _62
REMARK   25  A    between atoms: _62  and  _63
REMARK   26  A    between atoms: _62  and  _65
REMARK   27  A    between atoms: _65  and  _66
REMARK   28  A    between atoms: _71  and  _72
REMARK   29  A    between atoms: _74  and  _76
REMARK   30  A    between atoms: _76  and  _77
REMARK   31  A    between atoms: _76  and  _79
REMARK   32  A    between atoms: _79  and  _80
REMARK   33  A    between atoms: _85  and  _87
REMARK   34  A    between atoms: _87  and  _88
REMARK   35  A    between atoms: _90  and  _92
REMARK   36  A    between atoms: _92  and  _93
REMARK   37  A    between atoms: _92  and  _95
REMARK   38  A    between atoms: _95  and  _96
REMARK   39  A    between atoms: _101  and  _103
REMARK   40  A    between atoms: _103  and  _104
REMARK   41  A    between atoms: _103  and  _106
REMARK   42  A    between atoms: _108  and  _110
REMARK   43  A    between atoms: _110  and  _111
REMARK   44  A    between atoms: _114  and  _116
REMARK   45  A    between atoms: _116  and  _117
REMARK   46  A    between atoms: _116  and  _119
REMARK   47  A    between atoms: _122  and  _124
REMARK   48  A    between atoms: _124  and  _125
REMARK   49  A    between atoms: _124  and  _127
REMARK   50  A    between atoms: _127  and  _128
REMARK   51  A    between atoms: _128  and  _129
REMARK   52  A    between atoms: _129  and  _130
REMARK   53  A    between atoms: _130  and  _131
REMARK   54  A    between atoms: _135  and  _137
REMARK   55  A    between atoms: _137  and  _138
REMARK   56  A    between atoms: _137  and  _140
REMARK   57  A    between atoms: _140  and  _141
REMARK   58  A    between atoms: _143  and  _145
REMARK   59  A    between atoms: _145  and  _146
REMARK   60  A    between atoms: _145  and  _148
REMARK   61  A    between atoms: _148  and  _149
REMARK   62  A    between atoms: _149  and  _150
REMARK   63  A    between atoms: _152  and  _154
REMARK   64  A    between atoms: _154  and  _155
REMARK   65  A    between atoms: _154  and  _157
REMARK   66  A    between atoms: _157  and  _158
REMARK   67  A    between atoms: _161  and  _163
REMARK   68  A    between atoms: _163  and  _164
REMARK   69  A    between atoms: _163  and  _166
REMARK   70  A    between atoms: _166  and  _167
REMARK   71  A    between atoms: _169  and  _171
REMARK   72  A    between atoms: _171  and  _172
REMARK   73  A    between atoms: _171  and  _174
REMARK   74  A    between atoms: _177  and  _179
REMARK   75  A    between atoms: _179  and  _180
REMARK   76  A    between atoms: _179  and  _182
REMARK   77  A    between atoms: _185  and  _187
REMARK   78  A    between atoms: _187  and  _188
REMARK   79  A    between atoms: _187  and  _190
REMARK   80  A    between atoms: _190  and  _191
REMARK   81  A    between atoms: _195  and  _196
REMARK   82  A    between atoms: _201  and  _203
REMARK   83  A    between atoms: _203  and  _204
REMARK   84  A    between atoms: _203  and  _206
REMARK   85  A    between atoms: _206  and  _207
REMARK   86  A    between atoms: _212  and  _213
REMARK   87  A    between atoms: _215  and  _217
REMARK   88  A    between atoms: _217  and  _218
REMARK   89  A    between atoms: _217  and  _220
REMARK   90  A    between atoms: _220  and  _221
REMARK   91  A    between atoms: _221  and  _222
REMARK   92  A    between atoms: _224  and  _226
REMARK   93  A    between atoms: _226  and  _227
REMARK   94  A    between atoms: _226  and  _229
REMARK   95  A    between atoms: _229  and  _230
REMARK   96  A    between atoms: _230  and  _231
REMARK   97  A    between atoms: _231  and  _232
REMARK   98  A    between atoms: _232  and  _233
REMARK   99  A    between atoms: _237  and  _239
REMARK  100  A    between atoms: _239  and  _240
REMARK  101  A    between atoms: _239  and  _242
REMARK  102  A    between atoms: _242  and  _243
REMARK  103  A    between atoms: _248  and  _250
REMARK  104  A    between atoms: _250  and  _251
REMARK  105  A    between atoms: _253  and  _255
REMARK  106  A    between atoms: _255  and  _256
REMARK  107  A    between atoms: _255  and  _258
REMARK  108  A    between atoms: _258  and  _259
REMARK  109  A    between atoms: _262  and  _264
REMARK  110  A    between atoms: _264  and  _265
REMARK  111  A    between atoms: _264  and  _267
REMARK  112  A    between atoms: _267  and  _268
REMARK  113  A    between atoms: _271  and  _273
REMARK  114  A    between atoms: _273  and  _274
REMARK  115  A    between atoms: _273  and  _276
REMARK  116  A    between atoms: _276  and  _277
REMARK  117  A    between atoms: _277  and  _278
REMARK  118  A    between atoms: _278  and  _279
REMARK  119  A    between atoms: _288  and  _290
REMARK  120  A    between atoms: _290  and  _291
REMARK  121  A    between atoms: _290  and  _293
REMARK  122  A    between atoms: _293  and  _294
REMARK  123  A    between atoms: _299  and  _301
REMARK  124  A    between atoms: _301  and  _302
REMARK  125  A    between atoms: _301  and  _304
REMARK  126  A    between atoms: _304  and  _305
REMARK  127  A    between atoms: _311  and  _313
REMARK  128  A    between atoms: _313  and  _314
REMARK  129  A    between atoms: _313  and  _316
REMARK  130  A    between atoms: _316  and  _317
REMARK  131  A    between atoms: _322  and  _324
REMARK  132  A    between atoms: _324  and  _325
REMARK  133  A    between atoms: _324  and  _327
REMARK  134  A    between atoms: _327  and  _328
REMARK  135  A    between atoms: _331  and  _333
REMARK  136  A    between atoms: _333  and  _334
REMARK  137  A    between atoms: _337  and  _339
REMARK  138  A    between atoms: _339  and  _340
REMARK  139  A    between atoms: _343  and  _345
REMARK  140  A    between atoms: _345  and  _346
REMARK  141  A    between atoms: _345  and  _348
REMARK  142  A    between atoms: _348  and  _349
REMARK  143  A    between atoms: _349  and  _350
REMARK  144  A    between atoms: _350  and  _351
REMARK  145  A    between atoms: _360  and  _362
REMARK  146  A    between atoms: _362  and  _363
REMARK  147  A    between atoms: _362  and  _365
REMARK  148  A    between atoms: _365  and  _366
REMARK  149  A    between atoms: _371  and  _373
REMARK  150  A    between atoms: _373  and  _374
REMARK  151  A    between atoms: _373  and  _376
REMARK  152  A    between atoms: _378  and  _380
REMARK  153  A    between atoms: _380  and  _381
REMARK  154  A    between atoms: _380  and  _383
REMARK  155  A    between atoms: _383  and  _384
REMARK  156  A    between atoms: _384  and  _385
REMARK  157  A    between atoms: _387  and  _389
REMARK  158  A    between atoms: _389  and  _390
REMARK  159  A    between atoms: _389  and  _392
REMARK  160  A    between atoms: _392  and  _393
REMARK  161  A    between atoms: _396  and  _398
REMARK  162  A    between atoms: _398  and  _399
REMARK  163  A    between atoms: _398  and  _401
REMARK  164  A    between atoms: _401  and  _402
REMARK  165  A    between atoms: _405  and  _407
REMARK  166  A    between atoms: _407  and  _408
REMARK  167  A    between atoms: _407  and  _410
REMARK  168  A    between atoms: _410  and  _411
REMARK  169  A    between atoms: _411  and  _412
REMARK  170  A    between atoms: _412  and  _413
REMARK  171  A    between atoms: _413  and  _414
REMARK  172  A    between atoms: _418  and  _420
REMARK  173  A    between atoms: _420  and  _421
REMARK  174  A    between atoms: _420  and  _423
REMARK  175  A    between atoms: _426  and  _428
REMARK  176  A    between atoms: _428  and  _429
REMARK  177  A    between atoms: _432  and  _434
REMARK  178  A    between atoms: _434  and  _435
REMARK  179  A    between atoms: _434  and  _437
REMARK  180  A    between atoms: _437  and  _438
REMARK  181  A    between atoms: _441  and  _443
REMARK  182  A    between atoms: _443  and  _444
REMARK  183  A    between atoms: _443  and  _446
REMARK  184  A    between atoms: _446  and  _447
REMARK  185  A    between atoms: _453  and  _455
REMARK  186  A    between atoms: _455  and  _456
REMARK  187  A    between atoms: _455  and  _458
REMARK  188  A    between atoms: _458  and  _459
REMARK  189  A    between atoms: _462  and  _464
REMARK  190  A    between atoms: _464  and  _465
REMARK  191  A    between atoms: _468  and  _470
REMARK  192  A    between atoms: _470  and  _471
REMARK  193  A    between atoms: _470  and  _473
REMARK  194  A    between atoms: _473  and  _474
REMARK  195  A    between atoms: _474  and  _475
REMARK  196  A    between atoms: _475  and  _476
REMARK  197  A    between atoms: _485  and  _487
REMARK  198  A    between atoms: _487  and  _488
REMARK  199  A    between atoms: _487  and  _490
REMARK  200  A    between atoms: _490  and  _491
REMARK  201  A    between atoms: _494  and  _496
REMARK  202  A    between atoms: _496  and  _497
REMARK  203  A    between atoms: _496  and  _499
REMARK  204  A    between atoms: _499  and  _500
REMARK  205  A    between atoms: _500  and  _501
REMARK  206  A    between atoms: _503  and  _505
REMARK  207  A    between atoms: _505  and  _506
REMARK  208  A    between atoms: _505  and  _508
REMARK  209  A    between atoms: _508  and  _509
REMARK  210  A    between atoms: _514  and  _515
REMARK  211  A    between atoms: _517  and  _519
REMARK  212  A    between atoms: _519  and  _520
REMARK  213  A    between atoms: _519  and  _522
REMARK  214  A    between atoms: _522  and  _523
REMARK  215  A    between atoms: _526  and  _528
REMARK  216  A    between atoms: _528  and  _529
REMARK  217  A    between atoms: _528  and  _531
REMARK  218  A    between atoms: _531  and  _532
REMARK  219  A    between atoms: _537  and  _538
REMARK                            x       y       z     vdW  Elec       q    Type
REMARK                         _______ _______ _______ _____ _____    ______ ____
ROOT
ATOM      1  O   HOH     1      11.727  81.935  -2.882  0.00  0.00    +0.000 OA
ENDROOT
TORSDOF 0
REMARK  Name = ../refined-set-2016/4aoi/4aoi_pocket.pdb
REMARK  219 active torsions:
REMARK  status: ('A' for Active; 'I' for Inactive)
REMARK    1  A    between atoms: _1  and  _3
REMARK    2  A    between atoms: _3  and  _4
REMARK    3  A    between atoms: _3  and  _6
REMARK    4  A    between atoms: _9  and  _11
REMARK    5  A    between atoms: _11  and  _12
REMARK    6  A    between atoms: _11  and  _14
REMARK    7  A    between atoms: _14  and  _15
REMARK    8  A    between atoms: _18  and  _20
REMARK    9  A    between atoms: _20  and  _21
REMARK   10  A    between atoms: _23  and  _25
REMARK   11  A    between atoms: _25  and  _26
REMARK   12  A    between atoms: _25  and  _28
REMARK   13  A    between atoms: _28  and  _29
REMARK   14  A    between atoms: _29  and  _30
REMARK   15  A    between atoms: _30  and  _31
REMARK   16  A    between atoms: _40  and  _42
REMARK   17  A    between atoms: _42  and  _43
REMARK   18  A    between atoms: _45  and  _47
REMARK   19  A    between atoms: _47  and  _48
REMARK   20  A    between atoms: _47  and  _50
REMARK   21  A    between atoms: _52  and  _54
REMARK   22  A    between atoms: _54  and  _55
REMARK   23  A    between atoms: _54  and  _57
REMARK   24  A    between atoms: _60  and  _62
REMARK   25  A    between atoms: _62  and  _63
REMARK   26  A    between atoms: _62  and  _65
REMARK   27  A    between atoms: _65  and  _66
REMARK   28  A    between atoms: _71  and  _72
REMARK   29  A    between atoms: _74  and  _76
REMARK   30  A    between atoms: _76  and  _77
REMARK   31  A    between atoms: _76  and  _79
REMARK   32  A    between atoms: _79  and  _80
REMARK   33  A    between atoms: _85  and  _87
REMARK   34  A    between atoms: _87  and  _88
REMARK   35  A    between atoms: _90  and  _92
REMARK   36  A    between atoms: _92  and  _93
REMARK   37  A    between atoms: _92  and  _95
REMARK   38  A    between atoms: _95  and  _96
REMARK   39  A    between atoms: _101  and  _103
REMARK   40  A    between atoms: _103  and  _104
REMARK   41  A    between atoms: _103  and  _106
REMARK   42  A    between atoms: _108  and  _110
REMARK   43  A    between atoms: _110  and  _111
REMARK   44  A    between atoms: _114  and  _116
REMARK   45  A    between atoms: _116  and  _117
REMARK   46  A    between atoms: _116  and  _119
REMARK   47  A    between atoms: _122  and  _124
REMARK   48  A    between atoms: _124  and  _125
REMARK   49  A    between atoms: _124  and  _127
REMARK   50  A    between atoms: _127  and  _128
REMARK   51  A    between atoms: _128  and  _129
REMARK   52  A    between atoms: _129  and  _130
REMARK   53  A    between atoms: _130  and  _131
REMARK   54  A    between atoms: _135  and  _137
REMARK   55  A    between atoms: _137  and  _138
REMARK   56  A    between atoms: _137  and  _140
REMARK   57  A    between atoms: _140  and  _141
REMARK   58  A    between atoms: _143  and  _145
REMARK   59  A    between atoms: _145  and  _146
REMARK   60  A    between atoms: _145  and  _148
REMARK   61  A    between atoms: _148  and  _149
REMARK   62  A    between atoms: _149  and  _150
REMARK   63  A    between atoms: _152  and  _154
REMARK   64  A    between atoms: _154  and  _155
REMARK   65  A    between atoms: _154  and  _157
REMARK   66  A    between atoms: _157  and  _158
REMARK   67  A    between atoms: _161  and  _163
REMARK   68  A    between atoms: _163  and  _164
REMARK   69  A    between atoms: _163  and  _166
REMARK   70  A    between atoms: _166  and  _167
REMARK   71  A    between atoms: _169  and  _171
REMARK   72  A    between atoms: _171  and  _172
REMARK   73  A    between atoms: _171  and  _174
REMARK   74  A    between atoms: _177  and  _179
REMARK   75  A    between atoms: _179  and  _180
REMARK   76  A    between atoms: _179  and  _182
REMARK   77  A    between atoms: _185  and  _187
REMARK   78  A    between atoms: _187  and  _188
REMARK   79  A    between atoms: _187  and  _190
REMARK   80  A    between atoms: _190  and  _191
REMARK   81  A    between atoms: _195  and  _196
REMARK   82  A    between atoms: _201  and  _203
REMARK   83  A    between atoms: _203  and  _204
REMARK   84  A    between atoms: _203  and  _206
REMARK   85  A    between atoms: _206  and  _207
REMARK   86  A    between atoms: _212  and  _213
REMARK   87  A    between atoms: _215  and  _217
REMARK   88  A    between atoms: _217  and  _218
REMARK   89  A    between atoms: _217  and  _220
REMARK   90  A    between atoms: _220  and  _221
REMARK   91  A    between atoms: _221  and  _222
REMARK   92  A    between atoms: _224  and  _226
REMARK   93  A    between atoms: _226  and  _227
REMARK   94  A    between atoms: _226  and  _229
REMARK   95  A    between atoms: _229  and  _230
REMARK   96  A    between atoms: _230  and  _231
REMARK   97  A    between atoms: _231  and  _232
REMARK   98  A    between atoms: _232  and  _233
REMARK   99  A    between atoms: _237  and  _239
REMARK  100  A    between atoms: _239  and  _240
REMARK  101  A    between atoms: _239  and  _242
REMARK  102  A    between atoms: _242  and  _243
REMARK  103  A    between atoms: _248  and  _250
REMARK  104  A    between atoms: _250  and  _251
REMARK  105  A    between atoms: _253  and  _255
REMARK  106  A    between atoms: _255  and  _256
REMARK  107  A    between atoms: _255  and  _258
REMARK  108  A    between atoms: _258  and  _259
REMARK  109  A    between atoms: _262  and  _264
REMARK  110  A    between atoms: _264  and  _265
REMARK  111  A    between atoms: _264  and  _267
REMARK  112  A    between atoms: _267  and  _268
REMARK  113  A    between atoms: _271  and  _273
REMARK  114  A    between atoms: _273  and  _274
REMARK  115  A    between atoms: _273  and  _276
REMARK  116  A    between atoms: _276  and  _277
REMARK  117  A    between atoms: _277  and  _278
REMARK  118  A    between atoms: _278  and  _279
REMARK  119  A    between atoms: _288  and  _290
REMARK  120  A    between atoms: _290  and  _291
REMARK  121  A    between atoms: _290  and  _293
REMARK  122  A    between atoms: _293  and  _294
REMARK  123  A    between atoms: _299  and  _301
REMARK  124  A    between atoms: _301  and  _302
REMARK  125  A    between atoms: _301  and  _304
REMARK  126  A    between atoms: _304  and  _305
REMARK  127  A    between atoms: _311  and  _313
REMARK  128  A    between atoms: _313  and  _314
REMARK  129  A    between atoms: _313  and  _316
REMARK  130  A    between atoms: _316  and  _317
REMARK  131  A    between atoms: _322  and  _324
REMARK  132  A    between atoms: _324  and  _325
REMARK  133  A    between atoms: _324  and  _327
REMARK  134  A    between atoms: _327  and  _328
REMARK  135  A    between atoms: _331  and  _333
REMARK  136  A    between atoms: _333  and  _334
REMARK  137  A    between atoms: _337  and  _339
REMARK  138  A    between atoms: _339  and  _340
REMARK  139  A    between atoms: _343  and  _345
REMARK  140  A    between atoms: _345  and  _346
REMARK  141  A    between atoms: _345  and  _348
REMARK  142  A    between atoms: _348  and  _349
REMARK  143  A    between atoms: _349  and  _350
REMARK  144  A    between atoms: _350  and  _351
REMARK  145  A    between atoms: _360  and  _362
REMARK  146  A    between atoms: _362  and  _363
REMARK  147  A    between atoms: _362  and  _365
REMARK  148  A    between atoms: _365  and  _366
REMARK  149  A    between atoms: _371  and  _373
REMARK  150  A    between atoms: _373  and  _374
REMARK  151  A    between atoms: _373  and  _376
REMARK  152  A    between atoms: _378  and  _380
REMARK  153  A    between atoms: _380  and  _381
REMARK  154  A    between atoms: _380  and  _383
REMARK  155  A    between atoms: _383  and  _384
REMARK  156  A    between atoms: _384  and  _385
REMARK  157  A    between atoms: _387  and  _389
REMARK  158  A    between atoms: _389  and  _390
REMARK  159  A    between atoms: _389  and  _392
REMARK  160  A    between atoms: _392  and  _393
REMARK  161  A    between atoms: _396  and  _398
REMARK  162  A    between atoms: _398  and  _399
REMARK  163  A    between atoms: _398  and  _401
REMARK  164  A    between atoms: _401  and  _402
REMARK  165  A    between atoms: _405  and  _407
REMARK  166  A    between atoms: _407  and  _408
REMARK  167  A    between atoms: _407  and  _410
REMARK  168  A    between atoms: _410  and  _411
REMARK  169  A    between atoms: _411  and  _412
REMARK  170  A    between atoms: _412  and  _413
REMARK  171  A    between atoms: _413  and  _414
REMARK  172  A    between atoms: _418  and  _420
REMARK  173  A    between atoms: _420  and  _421
REMARK  174  A    between atoms: _420  and  _423
REMARK  175  A    between atoms: _426  and  _428
REMARK  176  A    between atoms: _428  and  _429
REMARK  177  A    between atoms: _432  and  _434
REMARK  178  A    between atoms: _434  and  _435
REMARK  179  A    between atoms: _434  and  _437
REMARK  180  A    between atoms: _437  and  _438
REMARK  181  A    between atoms: _441  and  _443
REMARK  182  A    between atoms: _443  and  _444
REMARK  183  A    between atoms: _443  and  _446
REMARK  184  A    between atoms: _446  and  _447
REMARK  185  A    between atoms: _453  and  _455
REMARK  186  A    between atoms: _455  and  _456
REMARK  187  A    between atoms: _455  and  _458
REMARK  188  A    between atoms: _458  and  _459
REMARK  189  A    between atoms: _462  and  _464
REMARK  190  A    between atoms: _464  and  _465
REMARK  191  A    between atoms: _468  and  _470
REMARK  192  A    between atoms: _470  and  _471
REMARK  193  A    between atoms: _470  and  _473
REMARK  194  A    between atoms: _473  and  _474
REMARK  195  A    between atoms: _474  and  _475
REMARK  196  A    between atoms: _475  and  _476
REMARK  197  A    between atoms: _485  and  _487
REMARK  198  A    between atoms: _487  and  _488
REMARK  199  A    between atoms: _487  and  _490
REMARK  200  A    between atoms: _490  and  _491
REMARK  201  A    between atoms: _494  and  _496
REMARK  202  A    between atoms: _496  and  _497
REMARK  203  A    between atoms: _496  and  _499
REMARK  204  A    between atoms: _499  and  _500
REMARK  205  A    between atoms: _500  and  _501
REMARK  206  A    between atoms: _503  and  _505
REMARK  207  A    between atoms: _505  and  _506
REMARK  208  A    between atoms: _505  and  _508
REMARK  209  A    between atoms: _508  and  _509
REMARK  210  A    between atoms: _514  and  _515
REMARK  211  A    between atoms: _517  and  _519
REMARK  212  A    between atoms: _519  and  _520
REMARK  213  A    between atoms: _519  and  _522
REMARK  214  A    between atoms: _522  and  _523
REMARK  215  A    between atoms: _526  and  _528
REMARK  216  A    between atoms: _528  and  _529
REMARK  217  A    between atoms: _528  and  _531
REMARK  218  A    between atoms: _531  and  _532
REMARK  219  A    between atoms: _537  and  _538
REMARK                            x       y       z     vdW  Elec       q    Type
REMARK                         _______ _______ _______ _____ _____    ______ ____
ROOT
ATOM      1  O   HOH     1      20.038  79.532  -4.755  0.00  0.00    +0.000 OA
ENDROOT
TORSDOF 0
