REMARK  Name = ../refined-set-2016/1fo0/1fo0_pocket.pdb
REMARK  423 active torsions:
REMARK  status: ('A' for Active; 'I' for Inactive)
REMARK    1  A    between atoms: _1  and  _3
REMARK    2  A    between atoms: _3  and  _4
REMARK    3  A    between atoms: _3  and  _6
REMARK    4  A    between atoms: _6  and  _7
REMARK    5  A    between atoms: _10  and  _12
REMARK    6  A    between atoms: _12  and  _13
REMARK    7  A    between atoms: _12  and  _15
REMARK    8  A    between atoms: _15  and  _16
REMARK    9  A    between atoms: _16  and  _17
REMARK   10  A    between atoms: _17  and  _18
REMARK   11  A    between atoms: _27  and  _29
REMARK   12  A    between atoms: _29  and  _30
REMARK   13  A    between atoms: _29  and  _32
REMARK   14  A    between atoms: _32  and  _33
REMARK   15  A    between atoms: _38  and  _39
REMARK   16  A    between atoms: _41  and  _43
REMARK   17  A    between atoms: _43  and  _44
REMARK   18  A    between atoms: _43  and  _46
REMARK   19  A    between atoms: _46  and  _47
REMARK   20  A    between atoms: _53  and  _55
REMARK   21  A    between atoms: _55  and  _56
REMARK   22  A    between atoms: _55  and  _58
REMARK   23  A    between atoms: _61  and  _63
REMARK   24  A    between atoms: _63  and  _64
REMARK   25  A    between atoms: _63  and  _66
REMARK   26  A    between atoms: _66  and  _67
REMARK   27  A    between atoms: _70  and  _72
REMARK   28  A    between atoms: _72  and  _73
REMARK   29  A    between atoms: _72  and  _75
REMARK   30  A    between atoms: _75  and  _76
REMARK   31  A    between atoms: _81  and  _82
REMARK   32  A    between atoms: _84  and  _86
REMARK   33  A    between atoms: _86  and  _87
REMARK   34  A    between atoms: _86  and  _89
REMARK   35  A    between atoms: _89  and  _90
REMARK   36  A    between atoms: _90  and  _91
REMARK   37  A    between atoms: _93  and  _95
REMARK   38  A    between atoms: _95  and  _96
REMARK   39  A    between atoms: _95  and  _98
REMARK   40  A    between atoms: _98  and  _99
REMARK   41  A    between atoms: _99  and  _100
REMARK   42  A    between atoms: _103  and  _105
REMARK   43  A    between atoms: _105  and  _106
REMARK   44  A    between atoms: _105  and  _108
REMARK   45  A    between atoms: _111  and  _113
REMARK   46  A    between atoms: _113  and  _114
REMARK   47  A    between atoms: _116  and  _118
REMARK   48  A    between atoms: _118  and  _119
REMARK   49  A    between atoms: _118  and  _121
REMARK   50  A    between atoms: _121  and  _122
REMARK   51  A    between atoms: _128  and  _130
REMARK   52  A    between atoms: _130  and  _131
REMARK   53  A    between atoms: _130  and  _133
REMARK   54  A    between atoms: _136  and  _138
REMARK   55  A    between atoms: _138  and  _139
REMARK   56  A    between atoms: _138  and  _141
REMARK   57  A    between atoms: _141  and  _142
REMARK   58  A    between atoms: _148  and  _150
REMARK   59  A    between atoms: _150  and  _151
REMARK   60  A    between atoms: _150  and  _153
REMARK   61  A    between atoms: _153  and  _154
REMARK   62  A    between atoms: _159  and  _160
REMARK   63  A    between atoms: _162  and  _164
REMARK   64  A    between atoms: _164  and  _165
REMARK   65  A    between atoms: _164  and  _167
REMARK   66  A    between atoms: _167  and  _168
REMARK   67  A    between atoms: _168  and  _169
REMARK   68  A    between atoms: _171  and  _173
REMARK   69  A    between atoms: _173  and  _174
REMARK   70  A    between atoms: _173  and  _176
REMARK   71  A    between atoms: _176  and  _177
REMARK   72  A    between atoms: _177  and  _178
REMARK   73  A    between atoms: _181  and  _183
REMARK   74  A    between atoms: _183  and  _184
REMARK   75  A    between atoms: _183  and  _186
REMARK   76  A    between atoms: _186  and  _187
REMARK   77  A    between atoms: _192  and  _193
REMARK   78  A    between atoms: _195  and  _197
REMARK   79  A    between atoms: _197  and  _198
REMARK   80  A    between atoms: _197  and  _200
REMARK   81  A    between atoms: _200  and  _201
REMARK   82  A    between atoms: _201  and  _202
REMARK   83  A    between atoms: _202  and  _203
REMARK   84  A    between atoms: _212  and  _214
REMARK   85  A    between atoms: _214  and  _215
REMARK   86  A    between atoms: _214  and  _217
REMARK   87  A    between atoms: _217  and  _218
REMARK   88  A    between atoms: _218  and  _219
REMARK   89  A    between atoms: _222  and  _224
REMARK   90  A    between atoms: _224  and  _225
REMARK   91  A    between atoms: _224  and  _227
REMARK   92  A    between atoms: _227  and  _228
REMARK   93  A    between atoms: _228  and  _229
REMARK   94  A    between atoms: _234  and  _236
REMARK   95  A    between atoms: _236  and  _237
REMARK   96  A    between atoms: _236  and  _239
REMARK   97  A    between atoms: _239  and  _240
REMARK   98  A    between atoms: _240  and  _241
REMARK   99  A    between atoms: _241  and  _242
REMARK  100  A    between atoms: _242  and  _243
REMARK  101  A    between atoms: _247  and  _249
REMARK  102  A    between atoms: _249  and  _250
REMARK  103  A    between atoms: _253  and  _255
REMARK  104  A    between atoms: _255  and  _256
REMARK  105  A    between atoms: _255  and  _258
REMARK  106  A    between atoms: _258  and  _259
REMARK  107  A    between atoms: _259  and  _260
REMARK  108  A    between atoms: _260  and  _261
REMARK  109  A    between atoms: _261  and  _262
REMARK  110  A    between atoms: _266  and  _268
REMARK  111  A    between atoms: _268  and  _269
REMARK  112  A    between atoms: _271  and  _273
REMARK  113  A    between atoms: _273  and  _274
REMARK  114  A    between atoms: _273  and  _276
REMARK  115  A    between atoms: _276  and  _277
REMARK  116  A    between atoms: _282  and  _284
REMARK  117  A    between atoms: _284  and  _285
REMARK  118  A    between atoms: _284  and  _287
REMARK  119  A    between atoms: _287  and  _288
REMARK  120  A    between atoms: _288  and  _289
REMARK  121  A    between atoms: _292  and  _294
REMARK  122  A    between atoms: _294  and  _295
REMARK  123  A    between atoms: _294  and  _297
REMARK  124  A    between atoms: _297  and  _298
REMARK  125  A    between atoms: _298  and  _299
REMARK  126  A    between atoms: _304  and  _306
REMARK  127  A    between atoms: _306  and  _307
REMARK  128  A    between atoms: _306  and  _309
REMARK  129  A    between atoms: _309  and  _310
REMARK  130  A    between atoms: _312  and  _314
REMARK  131  A    between atoms: _314  and  _315
REMARK  132  A    between atoms: _314  and  _317
REMARK  133  A    between atoms: _317  and  _318
REMARK  134  A    between atoms: _324  and  _326
REMARK  135  A    between atoms: _326  and  _327
REMARK  136  A    between atoms: _326  and  _329
REMARK  137  A    between atoms: _329  and  _330
REMARK  138  A    between atoms: _330  and  _331
REMARK  139  A    between atoms: _331  and  _332
REMARK  140  A    between atoms: _341  and  _343
REMARK  141  A    between atoms: _343  and  _344
REMARK  142  A    between atoms: _343  and  _346
REMARK  143  A    between atoms: _349  and  _351
REMARK  144  A    between atoms: _351  and  _352
REMARK  145  A    between atoms: _351  and  _354
REMARK  146  A    between atoms: _354  and  _355
REMARK  147  A    between atoms: _358  and  _360
REMARK  148  A    between atoms: _360  and  _361
REMARK  149  A    between atoms: _360  and  _363
REMARK  150  A    between atoms: _363  and  _364
REMARK  151  A    between atoms: _367  and  _369
REMARK  152  A    between atoms: _369  and  _370
REMARK  153  A    between atoms: _369  and  _372
REMARK  154  A    between atoms: _372  and  _373
REMARK  155  A    between atoms: _373  and  _374
REMARK  156  A    between atoms: _374  and  _375
REMARK  157  A    between atoms: _384  and  _386
REMARK  158  A    between atoms: _386  and  _387
REMARK  159  A    between atoms: _386  and  _389
REMARK  160  A    between atoms: _389  and  _390
REMARK  161  A    between atoms: _393  and  _395
REMARK  162  A    between atoms: _395  and  _396
REMARK  163  A    between atoms: _395  and  _398
REMARK  164  A    between atoms: _398  and  _399
REMARK  165  A    between atoms: _402  and  _404
REMARK  166  A    between atoms: _404  and  _405
REMARK  167  A    between atoms: _404  and  _407
REMARK  168  A    between atoms: _407  and  _408
REMARK  169  A    between atoms: _411  and  _413
REMARK  170  A    between atoms: _413  and  _414
REMARK  171  A    between atoms: _413  and  _416
REMARK  172  A    between atoms: _416  and  _417
REMARK  173  A    between atoms: _422  and  _423
REMARK  174  A    between atoms: _425  and  _427
REMARK  175  A    between atoms: _427  and  _428
REMARK  176  A    between atoms: _427  and  _430
REMARK  177  A    between atoms: _430  and  _431
REMARK  178  A    between atoms: _436  and  _437
REMARK  179  A    between atoms: _439  and  _441
REMARK  180  A    between atoms: _441  and  _442
REMARK  181  A    between atoms: _441  and  _444
REMARK  182  A    between atoms: _444  and  _445
REMARK  183  A    between atoms: _448  and  _450
REMARK  184  A    between atoms: _450  and  _451
REMARK  185  A    between atoms: _450  and  _453
REMARK  186  A    between atoms: _456  and  _458
REMARK  187  A    between atoms: _458  and  _459
REMARK  188  A    between atoms: _458  and  _461
REMARK  189  A    between atoms: _461  and  _462
REMARK  190  A    between atoms: _465  and  _467
REMARK  191  A    between atoms: _467  and  _468
REMARK  192  A    between atoms: _467  and  _470
REMARK  193  A    between atoms: _470  and  _471
REMARK  194  A    between atoms: _473  and  _475
REMARK  195  A    between atoms: _475  and  _476
REMARK  196  A    between atoms: _478  and  _480
REMARK  197  A    between atoms: _480  and  _481
REMARK  198  A    between atoms: _480  and  _483
REMARK  199  A    between atoms: _483  and  _484
REMARK  200  A    between atoms: _489  and  _490
REMARK  201  A    between atoms: _492  and  _494
REMARK  202  A    between atoms: _494  and  _495
REMARK  203  A    between atoms: _494  and  _497
REMARK  204  A    between atoms: _497  and  _498
REMARK  205  A    between atoms: _498  and  _499
REMARK  206  A    between atoms: _504  and  _506
REMARK  207  A    between atoms: _506  and  _507
REMARK  208  A    between atoms: _506  and  _509
REMARK  209  A    between atoms: _509  and  _510
REMARK  210  A    between atoms: _510  and  _511
REMARK  211  A    between atoms: _516  and  _518
REMARK  212  A    between atoms: _518  and  _519
REMARK  213  A    between atoms: _518  and  _521
REMARK  214  A    between atoms: _521  and  _522
REMARK  215  A    between atoms: _527  and  _528
REMARK  216  A    between atoms: _530  and  _532
REMARK  217  A    between atoms: _532  and  _533
REMARK  218  A    between atoms: _532  and  _535
REMARK  219  A    between atoms: _535  and  _536
REMARK  220  A    between atoms: _541  and  _542
REMARK  221  A    between atoms: _544  and  _546
REMARK  222  A    between atoms: _546  and  _547
REMARK  223  A    between atoms: _546  and  _549
REMARK  224  A    between atoms: _549  and  _550
REMARK  225  A    between atoms: _555  and  _556
REMARK  226  A    between atoms: _558  and  _560
REMARK  227  A    between atoms: _560  and  _561
REMARK  228  A    between atoms: _560  and  _563
REMARK  229  A    between atoms: _563  and  _564
REMARK  230  A    between atoms: _567  and  _569
REMARK  231  A    between atoms: _569  and  _570
REMARK  232  A    between atoms: _569  and  _572
REMARK  233  A    between atoms: _572  and  _573
REMARK  234  A    between atoms: _583  and  _585
REMARK  235  A    between atoms: _585  and  _586
REMARK  236  A    between atoms: _589  and  _591
REMARK  237  A    between atoms: _591  and  _592
REMARK  238  A    between atoms: _595  and  _597
REMARK  239  A    between atoms: _597  and  _598
REMARK  240  A    between atoms: _597  and  _600
REMARK  241  A    between atoms: _600  and  _601
REMARK  242  A    between atoms: _604  and  _606
REMARK  243  A    between atoms: _606  and  _607
REMARK  244  A    between atoms: _606  and  _609
REMARK  245  A    between atoms: _609  and  _610
REMARK  246  A    between atoms: _613  and  _615
REMARK  247  A    between atoms: _615  and  _616
REMARK  248  A    between atoms: _615  and  _618
REMARK  249  A    between atoms: _618  and  _619
REMARK  250  A    between atoms: _622  and  _624
REMARK  251  A    between atoms: _624  and  _625
REMARK  252  A    between atoms: _624  and  _627
REMARK  253  A    between atoms: _627  and  _628
REMARK  254  A    between atoms: _628  and  _629
REMARK  255  A    between atoms: _629  and  _630
REMARK  256  A    between atoms: _630  and  _631
REMARK  257  A    between atoms: _635  and  _637
REMARK  258  A    between atoms: _637  and  _638
REMARK  259  A    between atoms: _637  and  _640
REMARK  260  A    between atoms: _640  and  _641
REMARK  261  A    between atoms: _646  and  _648
REMARK  262  A    between atoms: _648  and  _649
REMARK  263  A    between atoms: _648  and  _651
REMARK  264  A    between atoms: _651  and  _652
REMARK  265  A    between atoms: _652  and  _653
REMARK  266  A    between atoms: _653  and  _654
REMARK  267  A    between atoms: _654  and  _655
REMARK  268  A    between atoms: _659  and  _661
REMARK  269  A    between atoms: _661  and  _662
REMARK  270  A    between atoms: _661  and  _664
REMARK  271  A    between atoms: _664  and  _665
REMARK  272  A    between atoms: _675  and  _677
REMARK  273  A    between atoms: _677  and  _678
REMARK  274  A    between atoms: _681  and  _683
REMARK  275  A    between atoms: _683  and  _684
REMARK  276  A    between atoms: _686  and  _688
REMARK  277  A    between atoms: _688  and  _689
REMARK  278  A    between atoms: _688  and  _691
REMARK  279  A    between atoms: _691  and  _692
REMARK  280  A    between atoms: _692  and  _693
REMARK  281  A    between atoms: _696  and  _698
REMARK  282  A    between atoms: _698  and  _699
REMARK  283  A    between atoms: _702  and  _704
REMARK  284  A    between atoms: _704  and  _705
REMARK  285  A    between atoms: _704  and  _707
REMARK  286  A    between atoms: _707  and  _708
REMARK  287  A    between atoms: _708  and  _709
REMARK  288  A    between atoms: _712  and  _714
REMARK  289  A    between atoms: _714  and  _715
REMARK  290  A    between atoms: _714  and  _717
REMARK  291  A    between atoms: _717  and  _718
REMARK  292  A    between atoms: _718  and  _719
REMARK  293  A    between atoms: _719  and  _720
REMARK  294  A    between atoms: _729  and  _731
REMARK  295  A    between atoms: _731  and  _732
REMARK  296  A    between atoms: _731  and  _734
REMARK  297  A    between atoms: _734  and  _735
REMARK  298  A    between atoms: _738  and  _740
REMARK  299  A    between atoms: _740  and  _741
REMARK  300  A    between atoms: _740  and  _743
REMARK  301  A    between atoms: _743  and  _744
REMARK  302  A    between atoms: _744  and  _745
REMARK  303  A    between atoms: _745  and  _746
REMARK  304  A    between atoms: _755  and  _757
REMARK  305  A    between atoms: _757  and  _758
REMARK  306  A    between atoms: _761  and  _763
REMARK  307  A    between atoms: _763  and  _764
REMARK  308  A    between atoms: _763  and  _766
REMARK  309  A    between atoms: _766  and  _767
REMARK  310  A    between atoms: _772  and  _773
REMARK  311  A    between atoms: _775  and  _777
REMARK  312  A    between atoms: _777  and  _778
REMARK  313  A    between atoms: _777  and  _780
REMARK  314  A    between atoms: _780  and  _781
REMARK  315  A    between atoms: _784  and  _786
REMARK  316  A    between atoms: _786  and  _787
REMARK  317  A    between atoms: _786  and  _789
REMARK  318  A    between atoms: _789  and  _790
REMARK  319  A    between atoms: _793  and  _795
REMARK  320  A    between atoms: _795  and  _796
REMARK  321  A    between atoms: _795  and  _798
REMARK  322  A    between atoms: _800  and  _802
REMARK  323  A    between atoms: _802  and  _803
REMARK  324  A    between atoms: _802  and  _805
REMARK  325  A    between atoms: _808  and  _810
REMARK  326  A    between atoms: _810  and  _811
REMARK  327  A    between atoms: _810  and  _813
REMARK  328  A    between atoms: _813  and  _814
REMARK  329  A    between atoms: _814  and  _815
REMARK  330  A    between atoms: _818  and  _820
REMARK  331  A    between atoms: _820  and  _821
REMARK  332  A    between atoms: _820  and  _823
REMARK  333  A    between atoms: _823  and  _824
REMARK  334  A    between atoms: _834  and  _836
REMARK  335  A    between atoms: _836  and  _837
REMARK  336  A    between atoms: _836  and  _839
REMARK  337  A    between atoms: _839  and  _840
REMARK  338  A    between atoms: _843  and  _845
REMARK  339  A    between atoms: _845  and  _846
REMARK  340  A    between atoms: _845  and  _848
REMARK  341  A    between atoms: _848  and  _849
REMARK  342  A    between atoms: _849  and  _850
REMARK  343  A    between atoms: _850  and  _851
REMARK  344  A    between atoms: _860  and  _862
REMARK  345  A    between atoms: _862  and  _863
REMARK  346  A    between atoms: _862  and  _865
REMARK  347  A    between atoms: _865  and  _866
REMARK  348  A    between atoms: _871  and  _872
REMARK  349  A    between atoms: _874  and  _876
REMARK  350  A    between atoms: _876  and  _877
REMARK  351  A    between atoms: _876  and  _879
REMARK  352  A    between atoms: _879  and  _880
REMARK  353  A    between atoms: _880  and  _881
REMARK  354  A    between atoms: _886  and  _888
REMARK  355  A    between atoms: _888  and  _889
REMARK  356  A    between atoms: _888  and  _891
REMARK  357  A    between atoms: _891  and  _892
REMARK  358  A    between atoms: _895  and  _897
REMARK  359  A    between atoms: _897  and  _898
REMARK  360  A    between atoms: _897  and  _900
REMARK  361  A    between atoms: _900  and  _901
REMARK  362  A    between atoms: _903  and  _905
REMARK  363  A    between atoms: _905  and  _906
REMARK  364  A    between atoms: _905  and  _908
REMARK  365  A    between atoms: _908  and  _909
REMARK  366  A    between atoms: _911  and  _913
REMARK  367  A    between atoms: _913  and  _914
REMARK  368  A    between atoms: _913  and  _916
REMARK  369  A    between atoms: _916  and  _917
REMARK  370  A    between atoms: _923  and  _925
REMARK  371  A    between atoms: _925  and  _926
REMARK  372  A    between atoms: _925  and  _928
REMARK  373  A    between atoms: _928  and  _929
REMARK  374  A    between atoms: _929  and  _930
REMARK  375  A    between atoms: _930  and  _931
REMARK  376  A    between atoms: _940  and  _942
REMARK  377  A    between atoms: _942  and  _943
REMARK  378  A    between atoms: _942  and  _945
REMARK  379  A    between atoms: _945  and  _946
REMARK  380  A    between atoms: _946  and  _947
REMARK  381  A    between atoms: _947  and  _948
REMARK  382  A    between atoms: _957  and  _959
REMARK  383  A    between atoms: _959  and  _960
REMARK  384  A    between atoms: _962  and  _964
REMARK  385  A    between atoms: _964  and  _965
REMARK  386  A    between atoms: _964  and  _967
REMARK  387  A    between atoms: _967  and  _968
REMARK  388  A    between atoms: _974  and  _975
REMARK  389  A    between atoms: _980  and  _982
REMARK  390  A    between atoms: _982  and  _983
REMARK  391  A    between atoms: _982  and  _985
REMARK  392  A    between atoms: _985  and  _986
REMARK  393  A    between atoms: _996  and  _998
REMARK  394  A    between atoms: _998  and  _999
REMARK  395  A    between atoms: _998  and  _1001
REMARK  396  A    between atoms: _1001  and  _1002
REMARK  397  A    between atoms: _1002  and  _1003
REMARK  398  A    between atoms: _1003  and  _1004
REMARK  399  A    between atoms: _1013  and  _1015
REMARK  400  A    between atoms: _1015  and  _1016
REMARK  401  A    between atoms: _1015  and  _1018
REMARK  402  A    between atoms: _1018  and  _1019
REMARK  403  A    between atoms: _1021  and  _1023
REMARK  404  A    between atoms: _1023  and  _1024
REMARK  405  A    between atoms: _1027  and  _1029
REMARK  406  A    between atoms: _1029  and  _1030
REMARK  407  A    between atoms: _1029  and  _1032
REMARK  408  A    between atoms: _1032  and  _1033
REMARK  409  A    between atoms: _1036  and  _1038
REMARK  410  A    between atoms: _1038  and  _1039
REMARK  411  A    between atoms: _1038  and  _1041
REMARK  412  A    between atoms: _1041  and  _1042
REMARK  413  A    between atoms: _1042  and  _1043
REMARK  414  A    between atoms: _1043  and  _1044
REMARK  415  A    between atoms: _1053  and  _1055
REMARK  416  A    between atoms: _1055  and  _1056
REMARK  417  A    between atoms: _1055  and  _1058
REMARK  418  A    between atoms: _1061  and  _1063
REMARK  419  A    between atoms: _1063  and  _1064
REMARK  420  A    between atoms: _1066  and  _1068
REMARK  421  A    between atoms: _1068  and  _1069
REMARK  422  A    between atoms: _1068  and  _1071
REMARK  423  A    between atoms: _1071  and  _1072
REMARK                            x       y       z     vdW  Elec       q    Type
REMARK                         _______ _______ _______ _____ _____    ______ ____
ROOT
ATOM      1  CA  TYR A   3      20.102  39.325  40.679  0.00  0.00    +0.153 C 
ENDROOT
BRANCH   1   2
ATOM      2  C   TYR A   3      18.906  38.588  40.110  0.00  0.00    +0.241 C 
ATOM      3  O   TYR A   3      17.832  38.706  40.681  0.00  0.00    -0.273 OA
ATOM      4  N   PHE A   4      19.123  37.901  39.014  0.00  0.00    -0.297 N 
ATOM      5  H   PHE A   4      20.074  37.903  38.592  0.00  0.00    +0.150 HD
BRANCH   4   6
ATOM      6  CA  PHE A   4      18.064  37.137  38.376  0.00  0.00    +0.153 C 
BRANCH   6   7
ATOM      7  C   PHE A   4      18.344  35.666  38.671  0.00  0.00    +0.241 C 
ATOM      8  N   VAL A   5      17.422  35.070  39.416  0.00  0.00    -0.297 N 
ATOM      9  H   VAL A   5      16.571  35.579  39.729  0.00  0.00    +0.150 HD
ATOM     10  O   PHE A   4      19.356  35.147  38.198  0.00  0.00    -0.273 OA
BRANCH   8  11
ATOM     11  CA  VAL A   5      17.647  33.665  39.783  0.00  0.00    +0.149 C 
BRANCH  11  12
ATOM     12  C   VAL A   5      16.721  32.690  39.108  0.00  0.00    +0.241 C 
ATOM     13  O   VAL A   5      15.538  32.965  38.893  0.00  0.00    -0.273 OA
ATOM     14  N   THR A   6      17.274  31.508  38.798  0.00  0.00    -0.296 N 
ATOM     15  H   THR A   6      18.273  31.335  39.030  0.00  0.00    +0.150 HD
BRANCH  14  16
ATOM     16  CA  THR A   6      16.510  30.475  38.150  0.00  0.00    +0.164 C 
BRANCH  16  17
ATOM     17  C   THR A   6      16.823  29.037  38.585  0.00  0.00    +0.229 C 
ATOM     18  O   THR A   6      17.991  28.661  38.610  0.00  0.00    -0.286 OA
ENDBRANCH  16  17
BRANCH  16  19
ATOM     19  CB  THR A   6      16.845  30.426  36.625  0.00  0.00    +0.136 C 
ATOM     20  CG2 THR A   6      15.688  29.769  35.902  0.00  0.00    +0.034 C 
BRANCH  19  21
ATOM     21  OG1 THR A   6      17.098  31.716  36.097  0.00  0.00    -0.382 OA
ATOM     22  HG1 THR A   6      17.305  31.641  35.132  0.00  0.00    +0.210 HD
ENDBRANCH  19  21
ENDBRANCH  16  19
ENDBRANCH  14  16
ENDBRANCH  11  12
BRANCH  11  23
ATOM     23  CB  VAL A   5      17.542  33.547  41.318  0.00  0.00    +0.027 C 
ATOM     24  CG2 VAL A   5      18.678  34.339  41.978  0.00  0.00    +0.002 C 
ATOM     25  CG1 VAL A   5      17.608  32.093  41.746  0.00  0.00    +0.002 C 
ENDBRANCH  11  23
ENDBRANCH   8  11
ENDBRANCH   6   7
BRANCH   6  26
ATOM     26  CB  PHE A   4      18.143  37.351  36.873  0.00  0.00    +0.055 C 
BRANCH  26  27
ATOM     27  CG  PHE A   4      17.531  38.645  36.432  0.00  0.00    -0.020 A 
ATOM     28  CD2 PHE A   4      17.966  39.848  36.919  0.00  0.00    -0.004 A 
ATOM     29  CE2 PHE A   4      17.395  41.036  36.515  0.00  0.00    -0.000 A 
ATOM     30  CZ  PHE A   4      16.378  41.013  35.579  0.00  0.00    -0.000 A 
ATOM     31  CE1 PHE A   4      15.942  39.811  35.065  0.00  0.00    -0.000 A 
ATOM     32  CD1 PHE A   4      16.519  38.633  35.489  0.00  0.00    -0.004 A 
ENDBRANCH  26  27
ENDBRANCH   6  26
ENDBRANCH   4   6
ENDBRANCH   1   2
BRANCH   1  34
ATOM     33  C   ARG A   2      20.303  41.710  40.185  0.00  0.00    +0.241 C 
ATOM     34  N   TYR A   3      19.724  40.713  40.872  0.00  0.00    -0.297 N 
ATOM     35  H   TYR A   3      18.982  40.942  41.564  0.00  0.00    +0.150 HD
ATOM     36  O   ARG A   2      21.196  41.590  39.347  0.00  0.00    -0.273 OA
BRANCH  33  37
ATOM     37  CA  ARG A   2      19.708  43.080  40.541  0.00  0.00    +0.149 C 
BRANCH  37  40
ATOM     38  C   LEU A   1      20.829  44.983  41.554  0.00  0.00    +0.238 C 
ATOM     39  O   LEU A   1      20.032  45.073  42.486  0.00  0.00    -0.274 OA
ATOM     40  N   ARG A   2      20.728  44.093  40.589  0.00  0.00    -0.297 N 
ATOM     41  H   ARG A   2      21.425  44.124  39.818  0.00  0.00    +0.150 HD
BRANCH  38  42
ATOM     42  CA  LEU A   1      21.929  46.052  41.384  0.00  0.00    +0.145 C 
BRANCH  42  43
ATOM     43  N   LEU A   1      21.220  47.301  41.160  0.00  0.00    -0.238 NA
ATOM     44  H   LEU A   1      20.491  47.543  41.861  0.00  0.00    +0.142 HD
ENDBRANCH  42  43
BRANCH  42  45
ATOM     45  CB  LEU A   1      22.719  46.122  42.698  0.00  0.00    +0.026 C 
BRANCH  45  46
ATOM     46  CG  LEU A   1      23.396  44.813  43.119  0.00  0.00    +0.002 C 
ATOM     47  CD2 LEU A   1      24.238  45.080  44.353  0.00  0.00    +0.000 C 
ATOM     48  CD1 LEU A   1      24.182  44.250  41.954  0.00  0.00    +0.000 C 
ENDBRANCH  45  46
ENDBRANCH  42  45
ENDBRANCH  38  42
ENDBRANCH  37  40
BRANCH  37  49
ATOM     49  CB  ARG A   2      18.619  43.344  39.482  0.00  0.00    +0.033 C 
BRANCH  49  50
ATOM     50  CG  ARG A   2      17.983  44.712  39.477  0.00  0.00    +0.045 C 
BRANCH  50  51
ATOM     51  CD  ARG A   2      17.343  45.018  38.113  0.00  0.00    +0.174 C 
BRANCH  51  52
ATOM     52  NE  ARG A   2      15.893  44.941  38.223  0.00  0.00    -0.265 N 
ATOM     53  HE  ARG A   2      15.505  45.167  39.161  0.00  0.00    +0.259 HD
ATOM     54  CZ  ARG A   2      14.997  44.624  37.300  0.00  0.00    +0.342 C 
ATOM     55  NH2 ARG A   2      13.698  44.611  37.630  0.00  0.00    -0.292 N 
ATOM     56 HH21 ARG A   2      13.405  44.848  38.600  0.00  0.00    +0.255 HD
ATOM     57 HH22 ARG A   2      12.983  44.364  36.917  0.00  0.00    +0.255 HD
ATOM     58  NH1 ARG A   2      15.334  44.305  36.048  0.00  0.00    -0.292 N 
ATOM     59 HH11 ARG A   2      16.335  44.299  35.764  0.00  0.00    +0.255 HD
ATOM     60 HH12 ARG A   2      14.596  44.063  35.356  0.00  0.00    +0.255 HD
ENDBRANCH  51  52
ENDBRANCH  50  51
ENDBRANCH  49  50
ENDBRANCH  37  49
ENDBRANCH  33  37
ENDBRANCH   1  34
BRANCH   1  61
ATOM     61  CB  TYR A   3      20.496  38.643  42.003  0.00  0.00    +0.055 C 
BRANCH  61  62
ATOM     62  CG  TYR A   3      21.844  39.228  42.422  0.00  0.00    -0.020 A 
ATOM     63  CD2 TYR A   3      21.891  40.332  43.235  0.00  0.00    -0.001 A 
ATOM     64  CE2 TYR A   3      23.086  40.894  43.596  0.00  0.00    +0.036 A 
ATOM     65  CZ  TYR A   3      24.265  40.355  43.119  0.00  0.00    +0.134 A 
ATOM     66  CE1 TYR A   3      24.223  39.264  42.306  0.00  0.00    +0.036 A 
ATOM     67  CD1 TYR A   3      23.021  38.699  41.940  0.00  0.00    -0.001 A 
BRANCH  65  68
ATOM     68  OH  TYR A   3      25.465  40.916  43.507  0.00  0.00    -0.506 OA
ATOM     69  HH  TYR A   3      25.998  40.244  44.001  0.00  0.00    +0.292 HD
ENDBRANCH  65  68
ENDBRANCH  61  62
ENDBRANCH   1  61
TORSDOF 26
REMARK  Name = ../refined-set-2016/1fo0/1fo0_pocket.pdb
REMARK  423 active torsions:
REMARK  status: ('A' for Active; 'I' for Inactive)
REMARK    1  A    between atoms: _1  and  _3
REMARK    2  A    between atoms: _3  and  _4
REMARK    3  A    between atoms: _3  and  _6
REMARK    4  A    between atoms: _6  and  _7
REMARK    5  A    between atoms: _10  and  _12
REMARK    6  A    between atoms: _12  and  _13
REMARK    7  A    between atoms: _12  and  _15
REMARK    8  A    between atoms: _15  and  _16
REMARK    9  A    between atoms: _16  and  _17
REMARK   10  A    between atoms: _17  and  _18
REMARK   11  A    between atoms: _27  and  _29
REMARK   12  A    between atoms: _29  and  _30
REMARK   13  A    between atoms: _29  and  _32
REMARK   14  A    between atoms: _32  and  _33
REMARK   15  A    between atoms: _38  and  _39
REMARK   16  A    between atoms: _41  and  _43
REMARK   17  A    between atoms: _43  and  _44
REMARK   18  A    between atoms: _43  and  _46
REMARK   19  A    between atoms: _46  and  _47
REMARK   20  A    between atoms: _53  and  _55
REMARK   21  A    between atoms: _55  and  _56
REMARK   22  A    between atoms: _55  and  _58
REMARK   23  A    between atoms: _61  and  _63
REMARK   24  A    between atoms: _63  and  _64
REMARK   25  A    between atoms: _63  and  _66
REMARK   26  A    between atoms: _66  and  _67
REMARK   27  A    between atoms: _70  and  _72
REMARK   28  A    between atoms: _72  and  _73
REMARK   29  A    between atoms: _72  and  _75
REMARK   30  A    between atoms: _75  and  _76
REMARK   31  A    between atoms: _81  and  _82
REMARK   32  A    between atoms: _84  and  _86
REMARK   33  A    between atoms: _86  and  _87
REMARK   34  A    between atoms: _86  and  _89
REMARK   35  A    between atoms: _89  and  _90
REMARK   36  A    between atoms: _90  and  _91
REMARK   37  A    between atoms: _93  and  _95
REMARK   38  A    between atoms: _95  and  _96
REMARK   39  A    between atoms: _95  and  _98
REMARK   40  A    between atoms: _98  and  _99
REMARK   41  A    between atoms: _99  and  _100
REMARK   42  A    between atoms: _103  and  _105
REMARK   43  A    between atoms: _105  and  _106
REMARK   44  A    between atoms: _105  and  _108
REMARK   45  A    between atoms: _111  and  _113
REMARK   46  A    between atoms: _113  and  _114
REMARK   47  A    between atoms: _116  and  _118
REMARK   48  A    between atoms: _118  and  _119
REMARK   49  A    between atoms: _118  and  _121
REMARK   50  A    between atoms: _121  and  _122
REMARK   51  A    between atoms: _128  and  _130
REMARK   52  A    between atoms: _130  and  _131
REMARK   53  A    between atoms: _130  and  _133
REMARK   54  A    between atoms: _136  and  _138
REMARK   55  A    between atoms: _138  and  _139
REMARK   56  A    between atoms: _138  and  _141
REMARK   57  A    between atoms: _141  and  _142
REMARK   58  A    between atoms: _148  and  _150
REMARK   59  A    between atoms: _150  and  _151
REMARK   60  A    between atoms: _150  and  _153
REMARK   61  A    between atoms: _153  and  _154
REMARK   62  A    between atoms: _159  and  _160
REMARK   63  A    between atoms: _162  and  _164
REMARK   64  A    between atoms: _164  and  _165
REMARK   65  A    between atoms: _164  and  _167
REMARK   66  A    between atoms: _167  and  _168
REMARK   67  A    between atoms: _168  and  _169
REMARK   68  A    between atoms: _171  and  _173
REMARK   69  A    between atoms: _173  and  _174
REMARK   70  A    between atoms: _173  and  _176
REMARK   71  A    between atoms: _176  and  _177
REMARK   72  A    between atoms: _177  and  _178
REMARK   73  A    between atoms: _181  and  _183
REMARK   74  A    between atoms: _183  and  _184
REMARK   75  A    between atoms: _183  and  _186
REMARK   76  A    between atoms: _186  and  _187
REMARK   77  A    between atoms: _192  and  _193
REMARK   78  A    between atoms: _195  and  _197
REMARK   79  A    between atoms: _197  and  _198
REMARK   80  A    between atoms: _197  and  _200
REMARK   81  A    between atoms: _200  and  _201
REMARK   82  A    between atoms: _201  and  _202
REMARK   83  A    between atoms: _202  and  _203
REMARK   84  A    between atoms: _212  and  _214
REMARK   85  A    between atoms: _214  and  _215
REMARK   86  A    between atoms: _214  and  _217
REMARK   87  A    between atoms: _217  and  _218
REMARK   88  A    between atoms: _218  and  _219
REMARK   89  A    between atoms: _222  and  _224
REMARK   90  A    between atoms: _224  and  _225
REMARK   91  A    between atoms: _224  and  _227
REMARK   92  A    between atoms: _227  and  _228
REMARK   93  A    between atoms: _228  and  _229
REMARK   94  A    between atoms: _234  and  _236
REMARK   95  A    between atoms: _236  and  _237
REMARK   96  A    between atoms: _236  and  _239
REMARK   97  A    between atoms: _239  and  _240
REMARK   98  A    between atoms: _240  and  _241
REMARK   99  A    between atoms: _241  and  _242
REMARK  100  A    between atoms: _242  and  _243
REMARK  101  A    between atoms: _247  and  _249
REMARK  102  A    between atoms: _249  and  _250
REMARK  103  A    between atoms: _253  and  _255
REMARK  104  A    between atoms: _255  and  _256
REMARK  105  A    between atoms: _255  and  _258
REMARK  106  A    between atoms: _258  and  _259
REMARK  107  A    between atoms: _259  and  _260
REMARK  108  A    between atoms: _260  and  _261
REMARK  109  A    between atoms: _261  and  _262
REMARK  110  A    between atoms: _266  and  _268
REMARK  111  A    between atoms: _268  and  _269
REMARK  112  A    between atoms: _271  and  _273
REMARK  113  A    between atoms: _273  and  _274
REMARK  114  A    between atoms: _273  and  _276
REMARK  115  A    between atoms: _276  and  _277
REMARK  116  A    between atoms: _282  and  _284
REMARK  117  A    between atoms: _284  and  _285
REMARK  118  A    between atoms: _284  and  _287
REMARK  119  A    between atoms: _287  and  _288
REMARK  120  A    between atoms: _288  and  _289
REMARK  121  A    between atoms: _292  and  _294
REMARK  122  A    between atoms: _294  and  _295
REMARK  123  A    between atoms: _294  and  _297
REMARK  124  A    between atoms: _297  and  _298
REMARK  125  A    between atoms: _298  and  _299
REMARK  126  A    between atoms: _304  and  _306
REMARK  127  A    between atoms: _306  and  _307
REMARK  128  A    between atoms: _306  and  _309
REMARK  129  A    between atoms: _309  and  _310
REMARK  130  A    between atoms: _312  and  _314
REMARK  131  A    between atoms: _314  and  _315
REMARK  132  A    between atoms: _314  and  _317
REMARK  133  A    between atoms: _317  and  _318
REMARK  134  A    between atoms: _324  and  _326
REMARK  135  A    between atoms: _326  and  _327
REMARK  136  A    between atoms: _326  and  _329
REMARK  137  A    between atoms: _329  and  _330
REMARK  138  A    between atoms: _330  and  _331
REMARK  139  A    between atoms: _331  and  _332
REMARK  140  A    between atoms: _341  and  _343
REMARK  141  A    between atoms: _343  and  _344
REMARK  142  A    between atoms: _343  and  _346
REMARK  143  A    between atoms: _349  and  _351
REMARK  144  A    between atoms: _351  and  _352
REMARK  145  A    between atoms: _351  and  _354
REMARK  146  A    between atoms: _354  and  _355
REMARK  147  A    between atoms: _358  and  _360
REMARK  148  A    between atoms: _360  and  _361
REMARK  149  A    between atoms: _360  and  _363
REMARK  150  A    between atoms: _363  and  _364
REMARK  151  A    between atoms: _367  and  _369
REMARK  152  A    between atoms: _369  and  _370
REMARK  153  A    between atoms: _369  and  _372
REMARK  154  A    between atoms: _372  and  _373
REMARK  155  A    between atoms: _373  and  _374
REMARK  156  A    between atoms: _374  and  _375
REMARK  157  A    between atoms: _384  and  _386
REMARK  158  A    between atoms: _386  and  _387
REMARK  159  A    between atoms: _386  and  _389
REMARK  160  A    between atoms: _389  and  _390
REMARK  161  A    between atoms: _393  and  _395
REMARK  162  A    between atoms: _395  and  _396
REMARK  163  A    between atoms: _395  and  _398
REMARK  164  A    between atoms: _398  and  _399
REMARK  165  A    between atoms: _402  and  _404
REMARK  166  A    between atoms: _404  and  _405
REMARK  167  A    between atoms: _404  and  _407
REMARK  168  A    between atoms: _407  and  _408
REMARK  169  A    between atoms: _411  and  _413
REMARK  170  A    between atoms: _413  and  _414
REMARK  171  A    between atoms: _413  and  _416
REMARK  172  A    between atoms: _416  and  _417
REMARK  173  A    between atoms: _422  and  _423
REMARK  174  A    between atoms: _425  and  _427
REMARK  175  A    between atoms: _427  and  _428
REMARK  176  A    between atoms: _427  and  _430
REMARK  177  A    between atoms: _430  and  _431
REMARK  178  A    between atoms: _436  and  _437
REMARK  179  A    between atoms: _439  and  _441
REMARK  180  A    between atoms: _441  and  _442
REMARK  181  A    between atoms: _441  and  _444
REMARK  182  A    between atoms: _444  and  _445
REMARK  183  A    between atoms: _448  and  _450
REMARK  184  A    between atoms: _450  and  _451
REMARK  185  A    between atoms: _450  and  _453
REMARK  186  A    between atoms: _456  and  _458
REMARK  187  A    between atoms: _458  and  _459
REMARK  188  A    between atoms: _458  and  _461
REMARK  189  A    between atoms: _461  and  _462
REMARK  190  A    between atoms: _465  and  _467
REMARK  191  A    between atoms: _467  and  _468
REMARK  192  A    between atoms: _467  and  _470
REMARK  193  A    between atoms: _470  and  _471
REMARK  194  A    between atoms: _473  and  _475
REMARK  195  A    between atoms: _475  and  _476
REMARK  196  A    between atoms: _478  and  _480
REMARK  197  A    between atoms: _480  and  _481
REMARK  198  A    between atoms: _480  and  _483
REMARK  199  A    between atoms: _483  and  _484
REMARK  200  A    between atoms: _489  and  _490
REMARK  201  A    between atoms: _492  and  _494
REMARK  202  A    between atoms: _494  and  _495
REMARK  203  A    between atoms: _494  and  _497
REMARK  204  A    between atoms: _497  and  _498
REMARK  205  A    between atoms: _498  and  _499
REMARK  206  A    between atoms: _504  and  _506
REMARK  207  A    between atoms: _506  and  _507
REMARK  208  A    between atoms: _506  and  _509
REMARK  209  A    between atoms: _509  and  _510
REMARK  210  A    between atoms: _510  and  _511
REMARK  211  A    between atoms: _516  and  _518
REMARK  212  A    between atoms: _518  and  _519
REMARK  213  A    between atoms: _518  and  _521
REMARK  214  A    between atoms: _521  and  _522
REMARK  215  A    between atoms: _527  and  _528
REMARK  216  A    between atoms: _530  and  _532
REMARK  217  A    between atoms: _532  and  _533
REMARK  218  A    between atoms: _532  and  _535
REMARK  219  A    between atoms: _535  and  _536
REMARK  220  A    between atoms: _541  and  _542
REMARK  221  A    between atoms: _544  and  _546
REMARK  222  A    between atoms: _546  and  _547
REMARK  223  A    between atoms: _546  and  _549
REMARK  224  A    between atoms: _549  and  _550
REMARK  225  A    between atoms: _555  and  _556
REMARK  226  A    between atoms: _558  and  _560
REMARK  227  A    between atoms: _560  and  _561
REMARK  228  A    between atoms: _560  and  _563
REMARK  229  A    between atoms: _563  and  _564
REMARK  230  A    between atoms: _567  and  _569
REMARK  231  A    between atoms: _569  and  _570
REMARK  232  A    between atoms: _569  and  _572
REMARK  233  A    between atoms: _572  and  _573
REMARK  234  A    between atoms: _583  and  _585
REMARK  235  A    between atoms: _585  and  _586
REMARK  236  A    between atoms: _589  and  _591
REMARK  237  A    between atoms: _591  and  _592
REMARK  238  A    between atoms: _595  and  _597
REMARK  239  A    between atoms: _597  and  _598
REMARK  240  A    between atoms: _597  and  _600
REMARK  241  A    between atoms: _600  and  _601
REMARK  242  A    between atoms: _604  and  _606
REMARK  243  A    between atoms: _606  and  _607
REMARK  244  A    between atoms: _606  and  _609
REMARK  245  A    between atoms: _609  and  _610
REMARK  246  A    between atoms: _613  and  _615
REMARK  247  A    between atoms: _615  and  _616
REMARK  248  A    between atoms: _615  and  _618
REMARK  249  A    between atoms: _618  and  _619
REMARK  250  A    between atoms: _622  and  _624
REMARK  251  A    between atoms: _624  and  _625
REMARK  252  A    between atoms: _624  and  _627
REMARK  253  A    between atoms: _627  and  _628
REMARK  254  A    between atoms: _628  and  _629
REMARK  255  A    between atoms: _629  and  _630
REMARK  256  A    between atoms: _630  and  _631
REMARK  257  A    between atoms: _635  and  _637
REMARK  258  A    between atoms: _637  and  _638
REMARK  259  A    between atoms: _637  and  _640
REMARK  260  A    between atoms: _640  and  _641
REMARK  261  A    between atoms: _646  and  _648
REMARK  262  A    between atoms: _648  and  _649
REMARK  263  A    between atoms: _648  and  _651
REMARK  264  A    between atoms: _651  and  _652
REMARK  265  A    between atoms: _652  and  _653
REMARK  266  A    between atoms: _653  and  _654
REMARK  267  A    between atoms: _654  and  _655
REMARK  268  A    between atoms: _659  and  _661
REMARK  269  A    between atoms: _661  and  _662
REMARK  270  A    between atoms: _661  and  _664
REMARK  271  A    between atoms: _664  and  _665
REMARK  272  A    between atoms: _675  and  _677
REMARK  273  A    between atoms: _677  and  _678
REMARK  274  A    between atoms: _681  and  _683
REMARK  275  A    between atoms: _683  and  _684
REMARK  276  A    between atoms: _686  and  _688
REMARK  277  A    between atoms: _688  and  _689
REMARK  278  A    between atoms: _688  and  _691
REMARK  279  A    between atoms: _691  and  _692
REMARK  280  A    between atoms: _692  and  _693
REMARK  281  A    between atoms: _696  and  _698
REMARK  282  A    between atoms: _698  and  _699
REMARK  283  A    between atoms: _702  and  _704
REMARK  284  A    between atoms: _704  and  _705
REMARK  285  A    between atoms: _704  and  _707
REMARK  286  A    between atoms: _707  and  _708
REMARK  287  A    between atoms: _708  and  _709
REMARK  288  A    between atoms: _712  and  _714
REMARK  289  A    between atoms: _714  and  _715
REMARK  290  A    between atoms: _714  and  _717
REMARK  291  A    between atoms: _717  and  _718
REMARK  292  A    between atoms: _718  and  _719
REMARK  293  A    between atoms: _719  and  _720
REMARK  294  A    between atoms: _729  and  _731
REMARK  295  A    between atoms: _731  and  _732
REMARK  296  A    between atoms: _731  and  _734
REMARK  297  A    between atoms: _734  and  _735
REMARK  298  A    between atoms: _738  and  _740
REMARK  299  A    between atoms: _740  and  _741
REMARK  300  A    between atoms: _740  and  _743
REMARK  301  A    between atoms: _743  and  _744
REMARK  302  A    between atoms: _744  and  _745
REMARK  303  A    between atoms: _745  and  _746
REMARK  304  A    between atoms: _755  and  _757
REMARK  305  A    between atoms: _757  and  _758
REMARK  306  A    between atoms: _761  and  _763
REMARK  307  A    between atoms: _763  and  _764
REMARK  308  A    between atoms: _763  and  _766
REMARK  309  A    between atoms: _766  and  _767
REMARK  310  A    between atoms: _772  and  _773
REMARK  311  A    between atoms: _775  and  _777
REMARK  312  A    between atoms: _777  and  _778
REMARK  313  A    between atoms: _777  and  _780
REMARK  314  A    between atoms: _780  and  _781
REMARK  315  A    between atoms: _784  and  _786
REMARK  316  A    between atoms: _786  and  _787
REMARK  317  A    between atoms: _786  and  _789
REMARK  318  A    between atoms: _789  and  _790
REMARK  319  A    between atoms: _793  and  _795
REMARK  320  A    between atoms: _795  and  _796
REMARK  321  A    between atoms: _795  and  _798
REMARK  322  A    between atoms: _800  and  _802
REMARK  323  A    between atoms: _802  and  _803
REMARK  324  A    between atoms: _802  and  _805
REMARK  325  A    between atoms: _808  and  _810
REMARK  326  A    between atoms: _810  and  _811
REMARK  327  A    between atoms: _810  and  _813
REMARK  328  A    between atoms: _813  and  _814
REMARK  329  A    between atoms: _814  and  _815
REMARK  330  A    between atoms: _818  and  _820
REMARK  331  A    between atoms: _820  and  _821
REMARK  332  A    between atoms: _820  and  _823
REMARK  333  A    between atoms: _823  and  _824
REMARK  334  A    between atoms: _834  and  _836
REMARK  335  A    between atoms: _836  and  _837
REMARK  336  A    between atoms: _836  and  _839
REMARK  337  A    between atoms: _839  and  _840
REMARK  338  A    between atoms: _843  and  _845
REMARK  339  A    between atoms: _845  and  _846
REMARK  340  A    between atoms: _845  and  _848
REMARK  341  A    between atoms: _848  and  _849
REMARK  342  A    between atoms: _849  and  _850
REMARK  343  A    between atoms: _850  and  _851
REMARK  344  A    between atoms: _860  and  _862
REMARK  345  A    between atoms: _862  and  _863
REMARK  346  A    between atoms: _862  and  _865
REMARK  347  A    between atoms: _865  and  _866
REMARK  348  A    between atoms: _871  and  _872
REMARK  349  A    between atoms: _874  and  _876
REMARK  350  A    between atoms: _876  and  _877
REMARK  351  A    between atoms: _876  and  _879
REMARK  352  A    between atoms: _879  and  _880
REMARK  353  A    between atoms: _880  and  _881
REMARK  354  A    between atoms: _886  and  _888
REMARK  355  A    between atoms: _888  and  _889
REMARK  356  A    between atoms: _888  and  _891
REMARK  357  A    between atoms: _891  and  _892
REMARK  358  A    between atoms: _895  and  _897
REMARK  359  A    between atoms: _897  and  _898
REMARK  360  A    between atoms: _897  and  _900
REMARK  361  A    between atoms: _900  and  _901
REMARK  362  A    between atoms: _903  and  _905
REMARK  363  A    between atoms: _905  and  _906
REMARK  364  A    between atoms: _905  and  _908
REMARK  365  A    between atoms: _908  and  _909
REMARK  366  A    between atoms: _911  and  _913
REMARK  367  A    between atoms: _913  and  _914
REMARK  368  A    between atoms: _913  and  _916
REMARK  369  A    between atoms: _916  and  _917
REMARK  370  A    between atoms: _923  and  _925
REMARK  371  A    between atoms: _925  and  _926
REMARK  372  A    between atoms: _925  and  _928
REMARK  373  A    between atoms: _928  and  _929
REMARK  374  A    between atoms: _929  and  _930
REMARK  375  A    between atoms: _930  and  _931
REMARK  376  A    between atoms: _940  and  _942
REMARK  377  A    between atoms: _942  and  _943
REMARK  378  A    between atoms: _942  and  _945
REMARK  379  A    between atoms: _945  and  _946
REMARK  380  A    between atoms: _946  and  _947
REMARK  381  A    between atoms: _947  and  _948
REMARK  382  A    between atoms: _957  and  _959
REMARK  383  A    between atoms: _959  and  _960
REMARK  384  A    between atoms: _962  and  _964
REMARK  385  A    between atoms: _964  and  _965
REMARK  386  A    between atoms: _964  and  _967
REMARK  387  A    between atoms: _967  and  _968
REMARK  388  A    between atoms: _974  and  _975
REMARK  389  A    between atoms: _980  and  _982
REMARK  390  A    between atoms: _982  and  _983
REMARK  391  A    between atoms: _982  and  _985
REMARK  392  A    between atoms: _985  and  _986
REMARK  393  A    between atoms: _996  and  _998
REMARK  394  A    between atoms: _998  and  _999
REMARK  395  A    between atoms: _998  and  _1001
REMARK  396  A    between atoms: _1001  and  _1002
REMARK  397  A    between atoms: _1002  and  _1003
REMARK  398  A    between atoms: _1003  and  _1004
REMARK  399  A    between atoms: _1013  and  _1015
REMARK  400  A    between atoms: _1015  and  _1016
REMARK  401  A    between atoms: _1015  and  _1018
REMARK  402  A    between atoms: _1018  and  _1019
REMARK  403  A    between atoms: _1021  and  _1023
REMARK  404  A    between atoms: _1023  and  _1024
REMARK  405  A    between atoms: _1027  and  _1029
REMARK  406  A    between atoms: _1029  and  _1030
REMARK  407  A    between atoms: _1029  and  _1032
REMARK  408  A    between atoms: _1032  and  _1033
REMARK  409  A    between atoms: _1036  and  _1038
REMARK  410  A    between atoms: _1038  and  _1039
REMARK  411  A    between atoms: _1038  and  _1041
REMARK  412  A    between atoms: _1041  and  _1042
REMARK  413  A    between atoms: _1042  and  _1043
REMARK  414  A    between atoms: _1043  and  _1044
REMARK  415  A    between atoms: _1053  and  _1055
REMARK  416  A    between atoms: _1055  and  _1056
REMARK  417  A    between atoms: _1055  and  _1058
REMARK  418  A    between atoms: _1061  and  _1063
REMARK  419  A    between atoms: _1063  and  _1064
REMARK  420  A    between atoms: _1066  and  _1068
REMARK  421  A    between atoms: _1068  and  _1069
REMARK  422  A    between atoms: _1068  and  _1071
REMARK  423  A    between atoms: _1071  and  _1072
REMARK                            x       y       z     vdW  Elec       q    Type
REMARK                         _______ _______ _______ _____ _____    ______ ____
ROOT
ATOM      1  C   MET A   2      21.405  31.096  38.743  0.00  0.00    +0.241 C 
ATOM      2  O   MET A   2      20.277  31.303  39.182  0.00  0.00    -0.273 OA
ATOM      3  N   GLU A   3      22.406  31.938  38.872  0.00  0.00    -0.297 N 
ATOM      4  H   GLU A   3      23.339  31.638  38.523  0.00  0.00    +0.150 HD
ENDROOT
BRANCH   3   5
ATOM      5  CA  GLU A   3      22.301  33.254  39.466  0.00  0.00    +0.149 C 
BRANCH   5   6
ATOM      6  C   GLU A   3      23.020  34.234  38.507  0.00  0.00    +0.241 C 
ATOM      7  N   VAL A   4      22.446  35.377  38.157  0.00  0.00    -0.297 N 
ATOM      8  H   VAL A   4      21.496  35.601  38.516  0.00  0.00    +0.150 HD
ATOM      9  O   GLU A   3      24.120  33.869  38.069  0.00  0.00    -0.273 OA
BRANCH   7  10
ATOM     10  CA  VAL A   4      23.132  36.341  37.264  0.00  0.00    +0.149 C 
BRANCH  10  11
ATOM     11  C   VAL A   4      22.985  37.706  37.916  0.00  0.00    +0.241 C 
ATOM     12  O   VAL A   4      21.869  38.056  38.321  0.00  0.00    -0.273 OA
ATOM     13  N   GLY A   5      24.036  38.475  38.107  0.00  0.00    -0.296 N 
ATOM     14  H   GLY A   5      24.972  38.141  37.799  0.00  0.00    +0.150 HD
BRANCH  13  15
ATOM     15  CA  GLY A   5      23.919  39.799  38.747  0.00  0.00    +0.163 C 
BRANCH  15  16
ATOM     16  C   GLY A   5      24.028  40.852  37.653  0.00  0.00    +0.229 C 
ATOM     17  O   GLY A   5      24.785  40.676  36.685  0.00  0.00    -0.286 OA
ENDBRANCH  15  16
ENDBRANCH  13  15
ENDBRANCH  10  11
BRANCH  10  18
ATOM     18  CB  VAL A   4      22.600  36.350  35.836  0.00  0.00    +0.027 C 
ATOM     19  CG2 VAL A   4      22.688  34.988  35.150  0.00  0.00    +0.002 C 
ATOM     20  CG1 VAL A   4      23.336  37.349  34.953  0.00  0.00    +0.002 C 
ENDBRANCH  10  18
ENDBRANCH   7  10
ENDBRANCH   5   6
BRANCH   5  21
ATOM     21  CB  GLU A   3      22.960  33.409  40.808  0.00  0.00    +0.041 C 
BRANCH  21  22
ATOM     22  CG  GLU A   3      22.525  32.504  41.921  0.00  0.00    +0.116 C 
BRANCH  22  23
ATOM     23  CD  GLU A   3      22.916  33.062  43.288  0.00  0.00    +0.365 C 
ATOM     24  OE2 GLU A   3      22.547  32.398  44.279  0.00  0.00    -0.246 OA
ATOM     25  OE1 GLU A   3      23.554  34.136  43.355  0.00  0.00    -0.246 OA
ENDBRANCH  22  23
ENDBRANCH  21  22
ENDBRANCH   5  21
ENDBRANCH   3   5
BRANCH   1  26
ATOM     26  CA  MET A   2      21.671  29.812  37.948  0.00  0.00    +0.149 C 
BRANCH  26  28
ATOM     27  C   TYR A   1      21.339  27.500  38.517  0.00  0.00    +0.239 C 
ATOM     28  N   MET A   2      20.845  28.727  38.460  0.00  0.00    -0.297 N 
ATOM     29  H   MET A   2      19.873  28.915  38.779  0.00  0.00    +0.150 HD
ATOM     30  O   TYR A   1      22.468  27.186  38.159  0.00  0.00    -0.274 OA
BRANCH  27  31
ATOM     31  CA  TYR A   1      20.416  26.432  39.095  0.00  0.00    +0.149 C 
BRANCH  31  32
ATOM     32  N   TYR A   1      20.504  25.213  38.326  0.00  0.00    -0.238 NA
ATOM     33  H   TYR A   1      21.428  24.746  38.230  0.00  0.00    +0.142 HD
ENDBRANCH  31  32
BRANCH  31  34
ATOM     34  CB  TYR A   1      20.807  26.176  40.563  0.00  0.00    +0.053 C 
BRANCH  34  35
ATOM     35  CG  TYR A   1      20.739  27.419  41.423  0.00  0.00    -0.020 A 
ATOM     36  CD2 TYR A   1      19.512  27.894  41.870  0.00  0.00    -0.001 A 
ATOM     37  CE2 TYR A   1      19.431  29.033  42.660  0.00  0.00    +0.036 A 
ATOM     38  CZ  TYR A   1      20.572  29.713  42.999  0.00  0.00    +0.134 A 
ATOM     39  CE1 TYR A   1      21.793  29.279  42.553  0.00  0.00    +0.036 A 
ATOM     40  CD1 TYR A   1      21.872  28.138  41.777  0.00  0.00    -0.001 A 
BRANCH  38  41
ATOM     41  OH  TYR A   1      20.463  30.841  43.755  0.00  0.00    -0.506 OA
ATOM     42  HH  TYR A   1      20.811  31.614  43.244  0.00  0.00    +0.292 HD
ENDBRANCH  38  41
ENDBRANCH  34  35
ENDBRANCH  31  34
ENDBRANCH  27  31
ENDBRANCH  26  28
BRANCH  26  43
ATOM     43  CB  MET A   2      21.272  30.139  36.511  0.00  0.00    +0.041 C 
BRANCH  43  44
ATOM     44  CG  MET A   2      21.536  29.142  35.408  0.00  0.00    +0.060 C 
BRANCH  44  45
ATOM     45  SD  MET A   2      23.031  29.568  34.446  0.00  0.00    -0.139 S 
ATOM     46  CE  MET A   2      22.778  31.312  34.241  0.00  0.00    +0.069 C 
ENDBRANCH  44  45
ENDBRANCH  43  44
ENDBRANCH  26  43
ENDBRANCH   1  26
TORSDOF 20
REMARK  Name = ../refined-set-2016/1fo0/1fo0_pocket.pdb
REMARK  423 active torsions:
REMARK  status: ('A' for Active; 'I' for Inactive)
REMARK    1  A    between atoms: _1  and  _3
REMARK    2  A    between atoms: _3  and  _4
REMARK    3  A    between atoms: _3  and  _6
REMARK    4  A    between atoms: _6  and  _7
REMARK    5  A    between atoms: _10  and  _12
REMARK    6  A    between atoms: _12  and  _13
REMARK    7  A    between atoms: _12  and  _15
REMARK    8  A    between atoms: _15  and  _16
REMARK    9  A    between atoms: _16  and  _17
REMARK   10  A    between atoms: _17  and  _18
REMARK   11  A    between atoms: _27  and  _29
REMARK   12  A    between atoms: _29  and  _30
REMARK   13  A    between atoms: _29  and  _32
REMARK   14  A    between atoms: _32  and  _33
REMARK   15  A    between atoms: _38  and  _39
REMARK   16  A    between atoms: _41  and  _43
REMARK   17  A    between atoms: _43  and  _44
REMARK   18  A    between atoms: _43  and  _46
REMARK   19  A    between atoms: _46  and  _47
REMARK   20  A    between atoms: _53  and  _55
REMARK   21  A    between atoms: _55  and  _56
REMARK   22  A    between atoms: _55  and  _58
REMARK   23  A    between atoms: _61  and  _63
REMARK   24  A    between atoms: _63  and  _64
REMARK   25  A    between atoms: _63  and  _66
REMARK   26  A    between atoms: _66  and  _67
REMARK   27  A    between atoms: _70  and  _72
REMARK   28  A    between atoms: _72  and  _73
REMARK   29  A    between atoms: _72  and  _75
REMARK   30  A    between atoms: _75  and  _76
REMARK   31  A    between atoms: _81  and  _82
REMARK   32  A    between atoms: _84  and  _86
REMARK   33  A    between atoms: _86  and  _87
REMARK   34  A    between atoms: _86  and  _89
REMARK   35  A    between atoms: _89  and  _90
REMARK   36  A    between atoms: _90  and  _91
REMARK   37  A    between atoms: _93  and  _95
REMARK   38  A    between atoms: _95  and  _96
REMARK   39  A    between atoms: _95  and  _98
REMARK   40  A    between atoms: _98  and  _99
REMARK   41  A    between atoms: _99  and  _100
REMARK   42  A    between atoms: _103  and  _105
REMARK   43  A    between atoms: _105  and  _106
REMARK   44  A    between atoms: _105  and  _108
REMARK   45  A    between atoms: _111  and  _113
REMARK   46  A    between atoms: _113  and  _114
REMARK   47  A    between atoms: _116  and  _118
REMARK   48  A    between atoms: _118  and  _119
REMARK   49  A    between atoms: _118  and  _121
REMARK   50  A    between atoms: _121  and  _122
REMARK   51  A    between atoms: _128  and  _130
REMARK   52  A    between atoms: _130  and  _131
REMARK   53  A    between atoms: _130  and  _133
REMARK   54  A    between atoms: _136  and  _138
REMARK   55  A    between atoms: _138  and  _139
REMARK   56  A    between atoms: _138  and  _141
REMARK   57  A    between atoms: _141  and  _142
REMARK   58  A    between atoms: _148  and  _150
REMARK   59  A    between atoms: _150  and  _151
REMARK   60  A    between atoms: _150  and  _153
REMARK   61  A    between atoms: _153  and  _154
REMARK   62  A    between atoms: _159  and  _160
REMARK   63  A    between atoms: _162  and  _164
REMARK   64  A    between atoms: _164  and  _165
REMARK   65  A    between atoms: _164  and  _167
REMARK   66  A    between atoms: _167  and  _168
REMARK   67  A    between atoms: _168  and  _169
REMARK   68  A    between atoms: _171  and  _173
REMARK   69  A    between atoms: _173  and  _174
REMARK   70  A    between atoms: _173  and  _176
REMARK   71  A    between atoms: _176  and  _177
REMARK   72  A    between atoms: _177  and  _178
REMARK   73  A    between atoms: _181  and  _183
REMARK   74  A    between atoms: _183  and  _184
REMARK   75  A    between atoms: _183  and  _186
REMARK   76  A    between atoms: _186  and  _187
REMARK   77  A    between atoms: _192  and  _193
REMARK   78  A    between atoms: _195  and  _197
REMARK   79  A    between atoms: _197  and  _198
REMARK   80  A    between atoms: _197  and  _200
REMARK   81  A    between atoms: _200  and  _201
REMARK   82  A    between atoms: _201  and  _202
REMARK   83  A    between atoms: _202  and  _203
REMARK   84  A    between atoms: _212  and  _214
REMARK   85  A    between atoms: _214  and  _215
REMARK   86  A    between atoms: _214  and  _217
REMARK   87  A    between atoms: _217  and  _218
REMARK   88  A    between atoms: _218  and  _219
REMARK   89  A    between atoms: _222  and  _224
REMARK   90  A    between atoms: _224  and  _225
REMARK   91  A    between atoms: _224  and  _227
REMARK   92  A    between atoms: _227  and  _228
REMARK   93  A    between atoms: _228  and  _229
REMARK   94  A    between atoms: _234  and  _236
REMARK   95  A    between atoms: _236  and  _237
REMARK   96  A    between atoms: _236  and  _239
REMARK   97  A    between atoms: _239  and  _240
REMARK   98  A    between atoms: _240  and  _241
REMARK   99  A    between atoms: _241  and  _242
REMARK  100  A    between atoms: _242  and  _243
REMARK  101  A    between atoms: _247  and  _249
REMARK  102  A    between atoms: _249  and  _250
REMARK  103  A    between atoms: _253  and  _255
REMARK  104  A    between atoms: _255  and  _256
REMARK  105  A    between atoms: _255  and  _258
REMARK  106  A    between atoms: _258  and  _259
REMARK  107  A    between atoms: _259  and  _260
REMARK  108  A    between atoms: _260  and  _261
REMARK  109  A    between atoms: _261  and  _262
REMARK  110  A    between atoms: _266  and  _268
REMARK  111  A    between atoms: _268  and  _269
REMARK  112  A    between atoms: _271  and  _273
REMARK  113  A    between atoms: _273  and  _274
REMARK  114  A    between atoms: _273  and  _276
REMARK  115  A    between atoms: _276  and  _277
REMARK  116  A    between atoms: _282  and  _284
REMARK  117  A    between atoms: _284  and  _285
REMARK  118  A    between atoms: _284  and  _287
REMARK  119  A    between atoms: _287  and  _288
REMARK  120  A    between atoms: _288  and  _289
REMARK  121  A    between atoms: _292  and  _294
REMARK  122  A    between atoms: _294  and  _295
REMARK  123  A    between atoms: _294  and  _297
REMARK  124  A    between atoms: _297  and  _298
REMARK  125  A    between atoms: _298  and  _299
REMARK  126  A    between atoms: _304  and  _306
REMARK  127  A    between atoms: _306  and  _307
REMARK  128  A    between atoms: _306  and  _309
REMARK  129  A    between atoms: _309  and  _310
REMARK  130  A    between atoms: _312  and  _314
REMARK  131  A    between atoms: _314  and  _315
REMARK  132  A    between atoms: _314  and  _317
REMARK  133  A    between atoms: _317  and  _318
REMARK  134  A    between atoms: _324  and  _326
REMARK  135  A    between atoms: _326  and  _327
REMARK  136  A    between atoms: _326  and  _329
REMARK  137  A    between atoms: _329  and  _330
REMARK  138  A    between atoms: _330  and  _331
REMARK  139  A    between atoms: _331  and  _332
REMARK  140  A    between atoms: _341  and  _343
REMARK  141  A    between atoms: _343  and  _344
REMARK  142  A    between atoms: _343  and  _346
REMARK  143  A    between atoms: _349  and  _351
REMARK  144  A    between atoms: _351  and  _352
REMARK  145  A    between atoms: _351  and  _354
REMARK  146  A    between atoms: _354  and  _355
REMARK  147  A    between atoms: _358  and  _360
REMARK  148  A    between atoms: _360  and  _361
REMARK  149  A    between atoms: _360  and  _363
REMARK  150  A    between atoms: _363  and  _364
REMARK  151  A    between atoms: _367  and  _369
REMARK  152  A    between atoms: _369  and  _370
REMARK  153  A    between atoms: _369  and  _372
REMARK  154  A    between atoms: _372  and  _373
REMARK  155  A    between atoms: _373  and  _374
REMARK  156  A    between atoms: _374  and  _375
REMARK  157  A    between atoms: _384  and  _386
REMARK  158  A    between atoms: _386  and  _387
REMARK  159  A    between atoms: _386  and  _389
REMARK  160  A    between atoms: _389  and  _390
REMARK  161  A    between atoms: _393  and  _395
REMARK  162  A    between atoms: _395  and  _396
REMARK  163  A    between atoms: _395  and  _398
REMARK  164  A    between atoms: _398  and  _399
REMARK  165  A    between atoms: _402  and  _404
REMARK  166  A    between atoms: _404  and  _405
REMARK  167  A    between atoms: _404  and  _407
REMARK  168  A    between atoms: _407  and  _408
REMARK  169  A    between atoms: _411  and  _413
REMARK  170  A    between atoms: _413  and  _414
REMARK  171  A    between atoms: _413  and  _416
REMARK  172  A    between atoms: _416  and  _417
REMARK  173  A    between atoms: _422  and  _423
REMARK  174  A    between atoms: _425  and  _427
REMARK  175  A    between atoms: _427  and  _428
REMARK  176  A    between atoms: _427  and  _430
REMARK  177  A    between atoms: _430  and  _431
REMARK  178  A    between atoms: _436  and  _437
REMARK  179  A    between atoms: _439  and  _441
REMARK  180  A    between atoms: _441  and  _442
REMARK  181  A    between atoms: _441  and  _444
REMARK  182  A    between atoms: _444  and  _445
REMARK  183  A    between atoms: _448  and  _450
REMARK  184  A    between atoms: _450  and  _451
REMARK  185  A    between atoms: _450  and  _453
REMARK  186  A    between atoms: _456  and  _458
REMARK  187  A    between atoms: _458  and  _459
REMARK  188  A    between atoms: _458  and  _461
REMARK  189  A    between atoms: _461  and  _462
REMARK  190  A    between atoms: _465  and  _467
REMARK  191  A    between atoms: _467  and  _468
REMARK  192  A    between atoms: _467  and  _470
REMARK  193  A    between atoms: _470  and  _471
REMARK  194  A    between atoms: _473  and  _475
REMARK  195  A    between atoms: _475  and  _476
REMARK  196  A    between atoms: _478  and  _480
REMARK  197  A    between atoms: _480  and  _481
REMARK  198  A    between atoms: _480  and  _483
REMARK  199  A    between atoms: _483  and  _484
REMARK  200  A    between atoms: _489  and  _490
REMARK  201  A    between atoms: _492  and  _494
REMARK  202  A    between atoms: _494  and  _495
REMARK  203  A    between atoms: _494  and  _497
REMARK  204  A    between atoms: _497  and  _498
REMARK  205  A    between atoms: _498  and  _499
REMARK  206  A    between atoms: _504  and  _506
REMARK  207  A    between atoms: _506  and  _507
REMARK  208  A    between atoms: _506  and  _509
REMARK  209  A    between atoms: _509  and  _510
REMARK  210  A    between atoms: _510  and  _511
REMARK  211  A    between atoms: _516  and  _518
REMARK  212  A    between atoms: _518  and  _519
REMARK  213  A    between atoms: _518  and  _521
REMARK  214  A    between atoms: _521  and  _522
REMARK  215  A    between atoms: _527  and  _528
REMARK  216  A    between atoms: _530  and  _532
REMARK  217  A    between atoms: _532  and  _533
REMARK  218  A    between atoms: _532  and  _535
REMARK  219  A    between atoms: _535  and  _536
REMARK  220  A    between atoms: _541  and  _542
REMARK  221  A    between atoms: _544  and  _546
REMARK  222  A    between atoms: _546  and  _547
REMARK  223  A    between atoms: _546  and  _549
REMARK  224  A    between atoms: _549  and  _550
REMARK  225  A    between atoms: _555  and  _556
REMARK  226  A    between atoms: _558  and  _560
REMARK  227  A    between atoms: _560  and  _561
REMARK  228  A    between atoms: _560  and  _563
REMARK  229  A    between atoms: _563  and  _564
REMARK  230  A    between atoms: _567  and  _569
REMARK  231  A    between atoms: _569  and  _570
REMARK  232  A    between atoms: _569  and  _572
REMARK  233  A    between atoms: _572  and  _573
REMARK  234  A    between atoms: _583  and  _585
REMARK  235  A    between atoms: _585  and  _586
REMARK  236  A    between atoms: _589  and  _591
REMARK  237  A    between atoms: _591  and  _592
REMARK  238  A    between atoms: _595  and  _597
REMARK  239  A    between atoms: _597  and  _598
REMARK  240  A    between atoms: _597  and  _600
REMARK  241  A    between atoms: _600  and  _601
REMARK  242  A    between atoms: _604  and  _606
REMARK  243  A    between atoms: _606  and  _607
REMARK  244  A    between atoms: _606  and  _609
REMARK  245  A    between atoms: _609  and  _610
REMARK  246  A    between atoms: _613  and  _615
REMARK  247  A    between atoms: _615  and  _616
REMARK  248  A    between atoms: _615  and  _618
REMARK  249  A    between atoms: _618  and  _619
REMARK  250  A    between atoms: _622  and  _624
REMARK  251  A    between atoms: _624  and  _625
REMARK  252  A    between atoms: _624  and  _627
REMARK  253  A    between atoms: _627  and  _628
REMARK  254  A    between atoms: _628  and  _629
REMARK  255  A    between atoms: _629  and  _630
REMARK  256  A    between atoms: _630  and  _631
REMARK  257  A    between atoms: _635  and  _637
REMARK  258  A    between atoms: _637  and  _638
REMARK  259  A    between atoms: _637  and  _640
REMARK  260  A    between atoms: _640  and  _641
REMARK  261  A    between atoms: _646  and  _648
REMARK  262  A    between atoms: _648  and  _649
REMARK  263  A    between atoms: _648  and  _651
REMARK  264  A    between atoms: _651  and  _652
REMARK  265  A    between atoms: _652  and  _653
REMARK  266  A    between atoms: _653  and  _654
REMARK  267  A    between atoms: _654  and  _655
REMARK  268  A    between atoms: _659  and  _661
REMARK  269  A    between atoms: _661  and  _662
REMARK  270  A    between atoms: _661  and  _664
REMARK  271  A    between atoms: _664  and  _665
REMARK  272  A    between atoms: _675  and  _677
REMARK  273  A    between atoms: _677  and  _678
REMARK  274  A    between atoms: _681  and  _683
REMARK  275  A    between atoms: _683  and  _684
REMARK  276  A    between atoms: _686  and  _688
REMARK  277  A    between atoms: _688  and  _689
REMARK  278  A    between atoms: _688  and  _691
REMARK  279  A    between atoms: _691  and  _692
REMARK  280  A    between atoms: _692  and  _693
REMARK  281  A    between atoms: _696  and  _698
REMARK  282  A    between atoms: _698  and  _699
REMARK  283  A    between atoms: _702  and  _704
REMARK  284  A    between atoms: _704  and  _705
REMARK  285  A    between atoms: _704  and  _707
REMARK  286  A    between atoms: _707  and  _708
REMARK  287  A    between atoms: _708  and  _709
REMARK  288  A    between atoms: _712  and  _714
REMARK  289  A    between atoms: _714  and  _715
REMARK  290  A    between atoms: _714  and  _717
REMARK  291  A    between atoms: _717  and  _718
REMARK  292  A    between atoms: _718  and  _719
REMARK  293  A    between atoms: _719  and  _720
REMARK  294  A    between atoms: _729  and  _731
REMARK  295  A    between atoms: _731  and  _732
REMARK  296  A    between atoms: _731  and  _734
REMARK  297  A    between atoms: _734  and  _735
REMARK  298  A    between atoms: _738  and  _740
REMARK  299  A    between atoms: _740  and  _741
REMARK  300  A    between atoms: _740  and  _743
REMARK  301  A    between atoms: _743  and  _744
REMARK  302  A    between atoms: _744  and  _745
REMARK  303  A    between atoms: _745  and  _746
REMARK  304  A    between atoms: _755  and  _757
REMARK  305  A    between atoms: _757  and  _758
REMARK  306  A    between atoms: _761  and  _763
REMARK  307  A    between atoms: _763  and  _764
REMARK  308  A    between atoms: _763  and  _766
REMARK  309  A    between atoms: _766  and  _767
REMARK  310  A    between atoms: _772  and  _773
REMARK  311  A    between atoms: _775  and  _777
REMARK  312  A    between atoms: _777  and  _778
REMARK  313  A    between atoms: _777  and  _780
REMARK  314  A    between atoms: _780  and  _781
REMARK  315  A    between atoms: _784  and  _786
REMARK  316  A    between atoms: _786  and  _787
REMARK  317  A    between atoms: _786  and  _789
REMARK  318  A    between atoms: _789  and  _790
REMARK  319  A    between atoms: _793  and  _795
REMARK  320  A    between atoms: _795  and  _796
REMARK  321  A    between atoms: _795  and  _798
REMARK  322  A    between atoms: _800  and  _802
REMARK  323  A    between atoms: _802  and  _803
REMARK  324  A    between atoms: _802  and  _805
REMARK  325  A    between atoms: _808  and  _810
REMARK  326  A    between atoms: _810  and  _811
REMARK  327  A    between atoms: _810  and  _813
REMARK  328  A    between atoms: _813  and  _814
REMARK  329  A    between atoms: _814  and  _815
REMARK  330  A    between atoms: _818  and  _820
REMARK  331  A    between atoms: _820  and  _821
REMARK  332  A    between atoms: _820  and  _823
REMARK  333  A    between atoms: _823  and  _824
REMARK  334  A    between atoms: _834  and  _836
REMARK  335  A    between atoms: _836  and  _837
REMARK  336  A    between atoms: _836  and  _839
REMARK  337  A    between atoms: _839  and  _840
REMARK  338  A    between atoms: _843  and  _845
REMARK  339  A    between atoms: _845  and  _846
REMARK  340  A    between atoms: _845  and  _848
REMARK  341  A    between atoms: _848  and  _849
REMARK  342  A    between atoms: _849  and  _850
REMARK  343  A    between atoms: _850  and  _851
REMARK  344  A    between atoms: _860  and  _862
REMARK  345  A    between atoms: _862  and  _863
REMARK  346  A    between atoms: _862  and  _865
REMARK  347  A    between atoms: _865  and  _866
REMARK  348  A    between atoms: _871  and  _872
REMARK  349  A    between atoms: _874  and  _876
REMARK  350  A    between atoms: _876  and  _877
REMARK  351  A    between atoms: _876  and  _879
REMARK  352  A    between atoms: _879  and  _880
REMARK  353  A    between atoms: _880  and  _881
REMARK  354  A    between atoms: _886  and  _888
REMARK  355  A    between atoms: _888  and  _889
REMARK  356  A    between atoms: _888  and  _891
REMARK  357  A    between atoms: _891  and  _892
REMARK  358  A    between atoms: _895  and  _897
REMARK  359  A    between atoms: _897  and  _898
REMARK  360  A    between atoms: _897  and  _900
REMARK  361  A    between atoms: _900  and  _901
REMARK  362  A    between atoms: _903  and  _905
REMARK  363  A    between atoms: _905  and  _906
REMARK  364  A    between atoms: _905  and  _908
REMARK  365  A    between atoms: _908  and  _909
REMARK  366  A    between atoms: _911  and  _913
REMARK  367  A    between atoms: _913  and  _914
REMARK  368  A    between atoms: _913  and  _916
REMARK  369  A    between atoms: _916  and  _917
REMARK  370  A    between atoms: _923  and  _925
REMARK  371  A    between atoms: _925  and  _926
REMARK  372  A    between atoms: _925  and  _928
REMARK  373  A    between atoms: _928  and  _929
REMARK  374  A    between atoms: _929  and  _930
REMARK  375  A    between atoms: _930  and  _931
REMARK  376  A    between atoms: _940  and  _942
REMARK  377  A    between atoms: _942  and  _943
REMARK  378  A    between atoms: _942  and  _945
REMARK  379  A    between atoms: _945  and  _946
REMARK  380  A    between atoms: _946  and  _947
REMARK  381  A    between atoms: _947  and  _948
REMARK  382  A    between atoms: _957  and  _959
REMARK  383  A    between atoms: _959  and  _960
REMARK  384  A    between atoms: _962  and  _964
REMARK  385  A    between atoms: _964  and  _965
REMARK  386  A    between atoms: _964  and  _967
REMARK  387  A    between atoms: _967  and  _968
REMARK  388  A    between atoms: _974  and  _975
REMARK  389  A    between atoms: _980  and  _982
REMARK  390  A    between atoms: _982  and  _983
REMARK  391  A    between atoms: _982  and  _985
REMARK  392  A    between atoms: _985  and  _986
REMARK  393  A    between atoms: _996  and  _998
REMARK  394  A    between atoms: _998  and  _999
REMARK  395  A    between atoms: _998  and  _1001
REMARK  396  A    between atoms: _1001  and  _1002
REMARK  397  A    between atoms: _1002  and  _1003
REMARK  398  A    between atoms: _1003  and  _1004
REMARK  399  A    between atoms: _1013  and  _1015
REMARK  400  A    between atoms: _1015  and  _1016
REMARK  401  A    between atoms: _1015  and  _1018
REMARK  402  A    between atoms: _1018  and  _1019
REMARK  403  A    between atoms: _1021  and  _1023
REMARK  404  A    between atoms: _1023  and  _1024
REMARK  405  A    between atoms: _1027  and  _1029
REMARK  406  A    between atoms: _1029  and  _1030
REMARK  407  A    between atoms: _1029  and  _1032
REMARK  408  A    between atoms: _1032  and  _1033
REMARK  409  A    between atoms: _1036  and  _1038
REMARK  410  A    between atoms: _1038  and  _1039
REMARK  411  A    between atoms: _1038  and  _1041
REMARK  412  A    between atoms: _1041  and  _1042
REMARK  413  A    between atoms: _1042  and  _1043
REMARK  414  A    between atoms: _1043  and  _1044
REMARK  415  A    between atoms: _1053  and  _1055
REMARK  416  A    between atoms: _1055  and  _1056
REMARK  417  A    between atoms: _1055  and  _1058
REMARK  418  A    between atoms: _1061  and  _1063
REMARK  419  A    between atoms: _1063  and  _1064
REMARK  420  A    between atoms: _1066  and  _1068
REMARK  421  A    between atoms: _1068  and  _1069
REMARK  422  A    between atoms: _1068  and  _1071
REMARK  423  A    between atoms: _1071  and  _1072
REMARK                            x       y       z     vdW  Elec       q    Type
REMARK                         _______ _______ _______ _____ _____    ______ ____
ROOT
ATOM      1  CA  PHE A   1      28.765  41.302  35.780  0.00  0.00    +0.149 C 
ENDROOT
BRANCH   1   2
ATOM      2  C   PHE A   1      29.306  40.128  36.571  0.00  0.00    +0.239 C 
ATOM      3  N   VAL A   2      28.426  39.278  37.057  0.00  0.00    -0.298 N 
ATOM      4  H   VAL A   2      27.422  39.485  36.880  0.00  0.00    +0.150 HD
ATOM      5  O   PHE A   1      30.526  40.033  36.741  0.00  0.00    -0.274 OA
BRANCH   3   6
ATOM      6  CA  VAL A   2      28.724  38.088  37.811  0.00  0.00    +0.137 C 
BRANCH   6   7
ATOM      7  CB  VAL A   2      28.631  38.209  39.332  0.00  0.00    +0.026 C 
ATOM      8  CG2 VAL A   2      29.861  38.858  39.956  0.00  0.00    +0.002 C 
ATOM      9  CG1 VAL A   2      27.371  38.973  39.758  0.00  0.00    +0.002 C 
ENDBRANCH   6   7
BRANCH   6  10
ATOM     10  C   VAL A   2      27.759  37.003  37.344  0.00  0.00    +0.227 C 
ATOM     11  O   VAL A   2      26.679  37.295  36.841  0.00  0.00    -0.286 OA
ENDBRANCH   6  10
ENDBRANCH   3   6
ENDBRANCH   1   2
BRANCH   1  12
ATOM     12  N   PHE A   1      27.403  41.156  35.288  0.00  0.00    -0.238 NA
ATOM     13  H   PHE A   1      26.651  40.824  35.925  0.00  0.00    +0.142 HD
ENDBRANCH   1  12
BRANCH   1  14
ATOM     14  CB  PHE A   1      28.945  42.557  36.616  0.00  0.00    +0.053 C 
BRANCH  14  15
ATOM     15  CG  PHE A   1      28.348  42.522  37.983  0.00  0.00    -0.020 A 
ATOM     16  CD2 PHE A   1      29.159  42.557  39.097  0.00  0.00    -0.004 A 
ATOM     17  CE2 PHE A   1      28.607  42.565  40.366  0.00  0.00    -0.000 A 
ATOM     18  CZ  PHE A   1      27.234  42.531  40.548  0.00  0.00    -0.000 A 
ATOM     19  CE1 PHE A   1      26.419  42.513  39.436  0.00  0.00    -0.000 A 
ATOM     20  CD1 PHE A   1      26.977  42.509  38.174  0.00  0.00    -0.004 A 
ENDBRANCH  14  15
ENDBRANCH   1  14
TORSDOF 7
REMARK  Name = ../refined-set-2016/1fo0/1fo0_pocket.pdb
REMARK  423 active torsions:
REMARK  status: ('A' for Active; 'I' for Inactive)
REMARK    1  A    between atoms: _1  and  _3
REMARK    2  A    between atoms: _3  and  _4
REMARK    3  A    between atoms: _3  and  _6
REMARK    4  A    between atoms: _6  and  _7
REMARK    5  A    between atoms: _10  and  _12
REMARK    6  A    between atoms: _12  and  _13
REMARK    7  A    between atoms: _12  and  _15
REMARK    8  A    between atoms: _15  and  _16
REMARK    9  A    between atoms: _16  and  _17
REMARK   10  A    between atoms: _17  and  _18
REMARK   11  A    between atoms: _27  and  _29
REMARK   12  A    between atoms: _29  and  _30
REMARK   13  A    between atoms: _29  and  _32
REMARK   14  A    between atoms: _32  and  _33
REMARK   15  A    between atoms: _38  and  _39
REMARK   16  A    between atoms: _41  and  _43
REMARK   17  A    between atoms: _43  and  _44
REMARK   18  A    between atoms: _43  and  _46
REMARK   19  A    between atoms: _46  and  _47
REMARK   20  A    between atoms: _53  and  _55
REMARK   21  A    between atoms: _55  and  _56
REMARK   22  A    between atoms: _55  and  _58
REMARK   23  A    between atoms: _61  and  _63
REMARK   24  A    between atoms: _63  and  _64
REMARK   25  A    between atoms: _63  and  _66
REMARK   26  A    between atoms: _66  and  _67
REMARK   27  A    between atoms: _70  and  _72
REMARK   28  A    between atoms: _72  and  _73
REMARK   29  A    between atoms: _72  and  _75
REMARK   30  A    between atoms: _75  and  _76
REMARK   31  A    between atoms: _81  and  _82
REMARK   32  A    between atoms: _84  and  _86
REMARK   33  A    between atoms: _86  and  _87
REMARK   34  A    between atoms: _86  and  _89
REMARK   35  A    between atoms: _89  and  _90
REMARK   36  A    between atoms: _90  and  _91
REMARK   37  A    between atoms: _93  and  _95
REMARK   38  A    between atoms: _95  and  _96
REMARK   39  A    between atoms: _95  and  _98
REMARK   40  A    between atoms: _98  and  _99
REMARK   41  A    between atoms: _99  and  _100
REMARK   42  A    between atoms: _103  and  _105
REMARK   43  A    between atoms: _105  and  _106
REMARK   44  A    between atoms: _105  and  _108
REMARK   45  A    between atoms: _111  and  _113
REMARK   46  A    between atoms: _113  and  _114
REMARK   47  A    between atoms: _116  and  _118
REMARK   48  A    between atoms: _118  and  _119
REMARK   49  A    between atoms: _118  and  _121
REMARK   50  A    between atoms: _121  and  _122
REMARK   51  A    between atoms: _128  and  _130
REMARK   52  A    between atoms: _130  and  _131
REMARK   53  A    between atoms: _130  and  _133
REMARK   54  A    between atoms: _136  and  _138
REMARK   55  A    between atoms: _138  and  _139
REMARK   56  A    between atoms: _138  and  _141
REMARK   57  A    between atoms: _141  and  _142
REMARK   58  A    between atoms: _148  and  _150
REMARK   59  A    between atoms: _150  and  _151
REMARK   60  A    between atoms: _150  and  _153
REMARK   61  A    between atoms: _153  and  _154
REMARK   62  A    between atoms: _159  and  _160
REMARK   63  A    between atoms: _162  and  _164
REMARK   64  A    between atoms: _164  and  _165
REMARK   65  A    between atoms: _164  and  _167
REMARK   66  A    between atoms: _167  and  _168
REMARK   67  A    between atoms: _168  and  _169
REMARK   68  A    between atoms: _171  and  _173
REMARK   69  A    between atoms: _173  and  _174
REMARK   70  A    between atoms: _173  and  _176
REMARK   71  A    between atoms: _176  and  _177
REMARK   72  A    between atoms: _177  and  _178
REMARK   73  A    between atoms: _181  and  _183
REMARK   74  A    between atoms: _183  and  _184
REMARK   75  A    between atoms: _183  and  _186
REMARK   76  A    between atoms: _186  and  _187
REMARK   77  A    between atoms: _192  and  _193
REMARK   78  A    between atoms: _195  and  _197
REMARK   79  A    between atoms: _197  and  _198
REMARK   80  A    between atoms: _197  and  _200
REMARK   81  A    between atoms: _200  and  _201
REMARK   82  A    between atoms: _201  and  _202
REMARK   83  A    between atoms: _202  and  _203
REMARK   84  A    between atoms: _212  and  _214
REMARK   85  A    between atoms: _214  and  _215
REMARK   86  A    between atoms: _214  and  _217
REMARK   87  A    between atoms: _217  and  _218
REMARK   88  A    between atoms: _218  and  _219
REMARK   89  A    between atoms: _222  and  _224
REMARK   90  A    between atoms: _224  and  _225
REMARK   91  A    between atoms: _224  and  _227
REMARK   92  A    between atoms: _227  and  _228
REMARK   93  A    between atoms: _228  and  _229
REMARK   94  A    between atoms: _234  and  _236
REMARK   95  A    between atoms: _236  and  _237
REMARK   96  A    between atoms: _236  and  _239
REMARK   97  A    between atoms: _239  and  _240
REMARK   98  A    between atoms: _240  and  _241
REMARK   99  A    between atoms: _241  and  _242
REMARK  100  A    between atoms: _242  and  _243
REMARK  101  A    between atoms: _247  and  _249
REMARK  102  A    between atoms: _249  and  _250
REMARK  103  A    between atoms: _253  and  _255
REMARK  104  A    between atoms: _255  and  _256
REMARK  105  A    between atoms: _255  and  _258
REMARK  106  A    between atoms: _258  and  _259
REMARK  107  A    between atoms: _259  and  _260
REMARK  108  A    between atoms: _260  and  _261
REMARK  109  A    between atoms: _261  and  _262
REMARK  110  A    between atoms: _266  and  _268
REMARK  111  A    between atoms: _268  and  _269
REMARK  112  A    between atoms: _271  and  _273
REMARK  113  A    between atoms: _273  and  _274
REMARK  114  A    between atoms: _273  and  _276
REMARK  115  A    between atoms: _276  and  _277
REMARK  116  A    between atoms: _282  and  _284
REMARK  117  A    between atoms: _284  and  _285
REMARK  118  A    between atoms: _284  and  _287
REMARK  119  A    between atoms: _287  and  _288
REMARK  120  A    between atoms: _288  and  _289
REMARK  121  A    between atoms: _292  and  _294
REMARK  122  A    between atoms: _294  and  _295
REMARK  123  A    between atoms: _294  and  _297
REMARK  124  A    between atoms: _297  and  _298
REMARK  125  A    between atoms: _298  and  _299
REMARK  126  A    between atoms: _304  and  _306
REMARK  127  A    between atoms: _306  and  _307
REMARK  128  A    between atoms: _306  and  _309
REMARK  129  A    between atoms: _309  and  _310
REMARK  130  A    between atoms: _312  and  _314
REMARK  131  A    between atoms: _314  and  _315
REMARK  132  A    between atoms: _314  and  _317
REMARK  133  A    between atoms: _317  and  _318
REMARK  134  A    between atoms: _324  and  _326
REMARK  135  A    between atoms: _326  and  _327
REMARK  136  A    between atoms: _326  and  _329
REMARK  137  A    between atoms: _329  and  _330
REMARK  138  A    between atoms: _330  and  _331
REMARK  139  A    between atoms: _331  and  _332
REMARK  140  A    between atoms: _341  and  _343
REMARK  141  A    between atoms: _343  and  _344
REMARK  142  A    between atoms: _343  and  _346
REMARK  143  A    between atoms: _349  and  _351
REMARK  144  A    between atoms: _351  and  _352
REMARK  145  A    between atoms: _351  and  _354
REMARK  146  A    between atoms: _354  and  _355
REMARK  147  A    between atoms: _358  and  _360
REMARK  148  A    between atoms: _360  and  _361
REMARK  149  A    between atoms: _360  and  _363
REMARK  150  A    between atoms: _363  and  _364
REMARK  151  A    between atoms: _367  and  _369
REMARK  152  A    between atoms: _369  and  _370
REMARK  153  A    between atoms: _369  and  _372
REMARK  154  A    between atoms: _372  and  _373
REMARK  155  A    between atoms: _373  and  _374
REMARK  156  A    between atoms: _374  and  _375
REMARK  157  A    between atoms: _384  and  _386
REMARK  158  A    between atoms: _386  and  _387
REMARK  159  A    between atoms: _386  and  _389
REMARK  160  A    between atoms: _389  and  _390
REMARK  161  A    between atoms: _393  and  _395
REMARK  162  A    between atoms: _395  and  _396
REMARK  163  A    between atoms: _395  and  _398
REMARK  164  A    between atoms: _398  and  _399
REMARK  165  A    between atoms: _402  and  _404
REMARK  166  A    between atoms: _404  and  _405
REMARK  167  A    between atoms: _404  and  _407
REMARK  168  A    between atoms: _407  and  _408
REMARK  169  A    between atoms: _411  and  _413
REMARK  170  A    between atoms: _413  and  _414
REMARK  171  A    between atoms: _413  and  _416
REMARK  172  A    between atoms: _416  and  _417
REMARK  173  A    between atoms: _422  and  _423
REMARK  174  A    between atoms: _425  and  _427
REMARK  175  A    between atoms: _427  and  _428
REMARK  176  A    between atoms: _427  and  _430
REMARK  177  A    between atoms: _430  and  _431
REMARK  178  A    between atoms: _436  and  _437
REMARK  179  A    between atoms: _439  and  _441
REMARK  180  A    between atoms: _441  and  _442
REMARK  181  A    between atoms: _441  and  _444
REMARK  182  A    between atoms: _444  and  _445
REMARK  183  A    between atoms: _448  and  _450
REMARK  184  A    between atoms: _450  and  _451
REMARK  185  A    between atoms: _450  and  _453
REMARK  186  A    between atoms: _456  and  _458
REMARK  187  A    between atoms: _458  and  _459
REMARK  188  A    between atoms: _458  and  _461
REMARK  189  A    between atoms: _461  and  _462
REMARK  190  A    between atoms: _465  and  _467
REMARK  191  A    between atoms: _467  and  _468
REMARK  192  A    between atoms: _467  and  _470
REMARK  193  A    between atoms: _470  and  _471
REMARK  194  A    between atoms: _473  and  _475
REMARK  195  A    between atoms: _475  and  _476
REMARK  196  A    between atoms: _478  and  _480
REMARK  197  A    between atoms: _480  and  _481
REMARK  198  A    between atoms: _480  and  _483
REMARK  199  A    between atoms: _483  and  _484
REMARK  200  A    between atoms: _489  and  _490
REMARK  201  A    between atoms: _492  and  _494
REMARK  202  A    between atoms: _494  and  _495
REMARK  203  A    between atoms: _494  and  _497
REMARK  204  A    between atoms: _497  and  _498
REMARK  205  A    between atoms: _498  and  _499
REMARK  206  A    between atoms: _504  and  _506
REMARK  207  A    between atoms: _506  and  _507
REMARK  208  A    between atoms: _506  and  _509
REMARK  209  A    between atoms: _509  and  _510
REMARK  210  A    between atoms: _510  and  _511
REMARK  211  A    between atoms: _516  and  _518
REMARK  212  A    between atoms: _518  and  _519
REMARK  213  A    between atoms: _518  and  _521
REMARK  214  A    between atoms: _521  and  _522
REMARK  215  A    between atoms: _527  and  _528
REMARK  216  A    between atoms: _530  and  _532
REMARK  217  A    between atoms: _532  and  _533
REMARK  218  A    between atoms: _532  and  _535
REMARK  219  A    between atoms: _535  and  _536
REMARK  220  A    between atoms: _541  and  _542
REMARK  221  A    between atoms: _544  and  _546
REMARK  222  A    between atoms: _546  and  _547
REMARK  223  A    between atoms: _546  and  _549
REMARK  224  A    between atoms: _549  and  _550
REMARK  225  A    between atoms: _555  and  _556
REMARK  226  A    between atoms: _558  and  _560
REMARK  227  A    between atoms: _560  and  _561
REMARK  228  A    between atoms: _560  and  _563
REMARK  229  A    between atoms: _563  and  _564
REMARK  230  A    between atoms: _567  and  _569
REMARK  231  A    between atoms: _569  and  _570
REMARK  232  A    between atoms: _569  and  _572
REMARK  233  A    between atoms: _572  and  _573
REMARK  234  A    between atoms: _583  and  _585
REMARK  235  A    between atoms: _585  and  _586
REMARK  236  A    between atoms: _589  and  _591
REMARK  237  A    between atoms: _591  and  _592
REMARK  238  A    between atoms: _595  and  _597
REMARK  239  A    between atoms: _597  and  _598
REMARK  240  A    between atoms: _597  and  _600
REMARK  241  A    between atoms: _600  and  _601
REMARK  242  A    between atoms: _604  and  _606
REMARK  243  A    between atoms: _606  and  _607
REMARK  244  A    between atoms: _606  and  _609
REMARK  245  A    between atoms: _609  and  _610
REMARK  246  A    between atoms: _613  and  _615
REMARK  247  A    between atoms: _615  and  _616
REMARK  248  A    between atoms: _615  and  _618
REMARK  249  A    between atoms: _618  and  _619
REMARK  250  A    between atoms: _622  and  _624
REMARK  251  A    between atoms: _624  and  _625
REMARK  252  A    between atoms: _624  and  _627
REMARK  253  A    between atoms: _627  and  _628
REMARK  254  A    between atoms: _628  and  _629
REMARK  255  A    between atoms: _629  and  _630
REMARK  256  A    between atoms: _630  and  _631
REMARK  257  A    between atoms: _635  and  _637
REMARK  258  A    between atoms: _637  and  _638
REMARK  259  A    between atoms: _637  and  _640
REMARK  260  A    between atoms: _640  and  _641
REMARK  261  A    between atoms: _646  and  _648
REMARK  262  A    between atoms: _648  and  _649
REMARK  263  A    between atoms: _648  and  _651
REMARK  264  A    between atoms: _651  and  _652
REMARK  265  A    between atoms: _652  and  _653
REMARK  266  A    between atoms: _653  and  _654
REMARK  267  A    between atoms: _654  and  _655
REMARK  268  A    between atoms: _659  and  _661
REMARK  269  A    between atoms: _661  and  _662
REMARK  270  A    between atoms: _661  and  _664
REMARK  271  A    between atoms: _664  and  _665
REMARK  272  A    between atoms: _675  and  _677
REMARK  273  A    between atoms: _677  and  _678
REMARK  274  A    between atoms: _681  and  _683
REMARK  275  A    between atoms: _683  and  _684
REMARK  276  A    between atoms: _686  and  _688
REMARK  277  A    between atoms: _688  and  _689
REMARK  278  A    between atoms: _688  and  _691
REMARK  279  A    between atoms: _691  and  _692
REMARK  280  A    between atoms: _692  and  _693
REMARK  281  A    between atoms: _696  and  _698
REMARK  282  A    between atoms: _698  and  _699
REMARK  283  A    between atoms: _702  and  _704
REMARK  284  A    between atoms: _704  and  _705
REMARK  285  A    between atoms: _704  and  _707
REMARK  286  A    between atoms: _707  and  _708
REMARK  287  A    between atoms: _708  and  _709
REMARK  288  A    between atoms: _712  and  _714
REMARK  289  A    between atoms: _714  and  _715
REMARK  290  A    between atoms: _714  and  _717
REMARK  291  A    between atoms: _717  and  _718
REMARK  292  A    between atoms: _718  and  _719
REMARK  293  A    between atoms: _719  and  _720
REMARK  294  A    between atoms: _729  and  _731
REMARK  295  A    between atoms: _731  and  _732
REMARK  296  A    between atoms: _731  and  _734
REMARK  297  A    between atoms: _734  and  _735
REMARK  298  A    between atoms: _738  and  _740
REMARK  299  A    between atoms: _740  and  _741
REMARK  300  A    between atoms: _740  and  _743
REMARK  301  A    between atoms: _743  and  _744
REMARK  302  A    between atoms: _744  and  _745
REMARK  303  A    between atoms: _745  and  _746
REMARK  304  A    between atoms: _755  and  _757
REMARK  305  A    between atoms: _757  and  _758
REMARK  306  A    between atoms: _761  and  _763
REMARK  307  A    between atoms: _763  and  _764
REMARK  308  A    between atoms: _763  and  _766
REMARK  309  A    between atoms: _766  and  _767
REMARK  310  A    between atoms: _772  and  _773
REMARK  311  A    between atoms: _775  and  _777
REMARK  312  A    between atoms: _777  and  _778
REMARK  313  A    between atoms: _777  and  _780
REMARK  314  A    between atoms: _780  and  _781
REMARK  315  A    between atoms: _784  and  _786
REMARK  316  A    between atoms: _786  and  _787
REMARK  317  A    between atoms: _786  and  _789
REMARK  318  A    between atoms: _789  and  _790
REMARK  319  A    between atoms: _793  and  _795
REMARK  320  A    between atoms: _795  and  _796
REMARK  321  A    between atoms: _795  and  _798
REMARK  322  A    between atoms: _800  and  _802
REMARK  323  A    between atoms: _802  and  _803
REMARK  324  A    between atoms: _802  and  _805
REMARK  325  A    between atoms: _808  and  _810
REMARK  326  A    between atoms: _810  and  _811
REMARK  327  A    between atoms: _810  and  _813
REMARK  328  A    between atoms: _813  and  _814
REMARK  329  A    between atoms: _814  and  _815
REMARK  330  A    between atoms: _818  and  _820
REMARK  331  A    between atoms: _820  and  _821
REMARK  332  A    between atoms: _820  and  _823
REMARK  333  A    between atoms: _823  and  _824
REMARK  334  A    between atoms: _834  and  _836
REMARK  335  A    between atoms: _836  and  _837
REMARK  336  A    between atoms: _836  and  _839
REMARK  337  A    between atoms: _839  and  _840
REMARK  338  A    between atoms: _843  and  _845
REMARK  339  A    between atoms: _845  and  _846
REMARK  340  A    between atoms: _845  and  _848
REMARK  341  A    between atoms: _848  and  _849
REMARK  342  A    between atoms: _849  and  _850
REMARK  343  A    between atoms: _850  and  _851
REMARK  344  A    between atoms: _860  and  _862
REMARK  345  A    between atoms: _862  and  _863
REMARK  346  A    between atoms: _862  and  _865
REMARK  347  A    between atoms: _865  and  _866
REMARK  348  A    between atoms: _871  and  _872
REMARK  349  A    between atoms: _874  and  _876
REMARK  350  A    between atoms: _876  and  _877
REMARK  351  A    between atoms: _876  and  _879
REMARK  352  A    between atoms: _879  and  _880
REMARK  353  A    between atoms: _880  and  _881
REMARK  354  A    between atoms: _886  and  _888
REMARK  355  A    between atoms: _888  and  _889
REMARK  356  A    between atoms: _888  and  _891
REMARK  357  A    between atoms: _891  and  _892
REMARK  358  A    between atoms: _895  and  _897
REMARK  359  A    between atoms: _897  and  _898
REMARK  360  A    between atoms: _897  and  _900
REMARK  361  A    between atoms: _900  and  _901
REMARK  362  A    between atoms: _903  and  _905
REMARK  363  A    between atoms: _905  and  _906
REMARK  364  A    between atoms: _905  and  _908
REMARK  365  A    between atoms: _908  and  _909
REMARK  366  A    between atoms: _911  and  _913
REMARK  367  A    between atoms: _913  and  _914
REMARK  368  A    between atoms: _913  and  _916
REMARK  369  A    between atoms: _916  and  _917
REMARK  370  A    between atoms: _923  and  _925
REMARK  371  A    between atoms: _925  and  _926
REMARK  372  A    between atoms: _925  and  _928
REMARK  373  A    between atoms: _928  and  _929
REMARK  374  A    between atoms: _929  and  _930
REMARK  375  A    between atoms: _930  and  _931
REMARK  376  A    between atoms: _940  and  _942
REMARK  377  A    between atoms: _942  and  _943
REMARK  378  A    between atoms: _942  and  _945
REMARK  379  A    between atoms: _945  and  _946
REMARK  380  A    between atoms: _946  and  _947
REMARK  381  A    between atoms: _947  and  _948
REMARK  382  A    between atoms: _957  and  _959
REMARK  383  A    between atoms: _959  and  _960
REMARK  384  A    between atoms: _962  and  _964
REMARK  385  A    between atoms: _964  and  _965
REMARK  386  A    between atoms: _964  and  _967
REMARK  387  A    between atoms: _967  and  _968
REMARK  388  A    between atoms: _974  and  _975
REMARK  389  A    between atoms: _980  and  _982
REMARK  390  A    between atoms: _982  and  _983
REMARK  391  A    between atoms: _982  and  _985
REMARK  392  A    between atoms: _985  and  _986
REMARK  393  A    between atoms: _996  and  _998
REMARK  394  A    between atoms: _998  and  _999
REMARK  395  A    between atoms: _998  and  _1001
REMARK  396  A    between atoms: _1001  and  _1002
REMARK  397  A    between atoms: _1002  and  _1003
REMARK  398  A    between atoms: _1003  and  _1004
REMARK  399  A    between atoms: _1013  and  _1015
REMARK  400  A    between atoms: _1015  and  _1016
REMARK  401  A    between atoms: _1015  and  _1018
REMARK  402  A    between atoms: _1018  and  _1019
REMARK  403  A    between atoms: _1021  and  _1023
REMARK  404  A    between atoms: _1023  and  _1024
REMARK  405  A    between atoms: _1027  and  _1029
REMARK  406  A    between atoms: _1029  and  _1030
REMARK  407  A    between atoms: _1029  and  _1032
REMARK  408  A    between atoms: _1032  and  _1033
REMARK  409  A    between atoms: _1036  and  _1038
REMARK  410  A    between atoms: _1038  and  _1039
REMARK  411  A    between atoms: _1038  and  _1041
REMARK  412  A    between atoms: _1041  and  _1042
REMARK  413  A    between atoms: _1042  and  _1043
REMARK  414  A    between atoms: _1043  and  _1044
REMARK  415  A    between atoms: _1053  and  _1055
REMARK  416  A    between atoms: _1055  and  _1056
REMARK  417  A    between atoms: _1055  and  _1058
REMARK  418  A    between atoms: _1061  and  _1063
REMARK  419  A    between atoms: _1063  and  _1064
REMARK  420  A    between atoms: _1066  and  _1068
REMARK  421  A    between atoms: _1068  and  _1069
REMARK  422  A    between atoms: _1068  and  _1071
REMARK  423  A    between atoms: _1071  and  _1072
REMARK                            x       y       z     vdW  Elec       q    Type
REMARK                         _______ _______ _______ _____ _____    ______ ____
ROOT
ATOM      1  CB  PHE A   1      26.408  31.316  40.239  0.00  0.00    +0.051 C 
ENDROOT
BRANCH   1   2
ATOM      2  CG  PHE A   1      26.605  29.941  40.842  0.00  0.00    -0.020 A 
ATOM      3  CD2 PHE A   1      27.781  29.618  41.484  0.00  0.00    -0.004 A 
ATOM      4  CE2 PHE A   1      27.992  28.379  42.045  0.00  0.00    -0.000 A 
ATOM      5  CZ  PHE A   1      26.996  27.419  41.962  0.00  0.00    -0.000 A 
ATOM      6  CE1 PHE A   1      25.797  27.725  41.304  0.00  0.00    -0.000 A 
ATOM      7  CD1 PHE A   1      25.616  28.975  40.751  0.00  0.00    -0.004 A 
ENDBRANCH   1   2
BRANCH   1   8
ATOM      8  CA  PHE A   1      26.746  31.348  38.756  0.00  0.00    +0.137 C 
BRANCH   8   9
ATOM      9  N   PHE A   1      26.584  32.642  38.138  0.00  0.00    -0.239 NA
ATOM     10  H   PHE A   1      25.622  33.008  37.990  0.00  0.00    +0.142 HD
ENDBRANCH   8   9
BRANCH   8  11
ATOM     11  C   PHE A   1      25.843  30.333  38.041  0.00  0.00    +0.224 C 
ATOM     12  O   PHE A   1      24.656  30.552  37.843  0.00  0.00    -0.287 OA
ENDBRANCH   8  11
ENDBRANCH   1   8
TORSDOF 4
REMARK  Name = ../refined-set-2016/1fo0/1fo0_pocket.pdb
REMARK  423 active torsions:
REMARK  status: ('A' for Active; 'I' for Inactive)
REMARK    1  A    between atoms: _1  and  _3
REMARK    2  A    between atoms: _3  and  _4
REMARK    3  A    between atoms: _3  and  _6
REMARK    4  A    between atoms: _6  and  _7
REMARK    5  A    between atoms: _10  and  _12
REMARK    6  A    between atoms: _12  and  _13
REMARK    7  A    between atoms: _12  and  _15
REMARK    8  A    between atoms: _15  and  _16
REMARK    9  A    between atoms: _16  and  _17
REMARK   10  A    between atoms: _17  and  _18
REMARK   11  A    between atoms: _27  and  _29
REMARK   12  A    between atoms: _29  and  _30
REMARK   13  A    between atoms: _29  and  _32
REMARK   14  A    between atoms: _32  and  _33
REMARK   15  A    between atoms: _38  and  _39
REMARK   16  A    between atoms: _41  and  _43
REMARK   17  A    between atoms: _43  and  _44
REMARK   18  A    between atoms: _43  and  _46
REMARK   19  A    between atoms: _46  and  _47
REMARK   20  A    between atoms: _53  and  _55
REMARK   21  A    between atoms: _55  and  _56
REMARK   22  A    between atoms: _55  and  _58
REMARK   23  A    between atoms: _61  and  _63
REMARK   24  A    between atoms: _63  and  _64
REMARK   25  A    between atoms: _63  and  _66
REMARK   26  A    between atoms: _66  and  _67
REMARK   27  A    between atoms: _70  and  _72
REMARK   28  A    between atoms: _72  and  _73
REMARK   29  A    between atoms: _72  and  _75
REMARK   30  A    between atoms: _75  and  _76
REMARK   31  A    between atoms: _81  and  _82
REMARK   32  A    between atoms: _84  and  _86
REMARK   33  A    between atoms: _86  and  _87
REMARK   34  A    between atoms: _86  and  _89
REMARK   35  A    between atoms: _89  and  _90
REMARK   36  A    between atoms: _90  and  _91
REMARK   37  A    between atoms: _93  and  _95
REMARK   38  A    between atoms: _95  and  _96
REMARK   39  A    between atoms: _95  and  _98
REMARK   40  A    between atoms: _98  and  _99
REMARK   41  A    between atoms: _99  and  _100
REMARK   42  A    between atoms: _103  and  _105
REMARK   43  A    between atoms: _105  and  _106
REMARK   44  A    between atoms: _105  and  _108
REMARK   45  A    between atoms: _111  and  _113
REMARK   46  A    between atoms: _113  and  _114
REMARK   47  A    between atoms: _116  and  _118
REMARK   48  A    between atoms: _118  and  _119
REMARK   49  A    between atoms: _118  and  _121
REMARK   50  A    between atoms: _121  and  _122
REMARK   51  A    between atoms: _128  and  _130
REMARK   52  A    between atoms: _130  and  _131
REMARK   53  A    between atoms: _130  and  _133
REMARK   54  A    between atoms: _136  and  _138
REMARK   55  A    between atoms: _138  and  _139
REMARK   56  A    between atoms: _138  and  _141
REMARK   57  A    between atoms: _141  and  _142
REMARK   58  A    between atoms: _148  and  _150
REMARK   59  A    between atoms: _150  and  _151
REMARK   60  A    between atoms: _150  and  _153
REMARK   61  A    between atoms: _153  and  _154
REMARK   62  A    between atoms: _159  and  _160
REMARK   63  A    between atoms: _162  and  _164
REMARK   64  A    between atoms: _164  and  _165
REMARK   65  A    between atoms: _164  and  _167
REMARK   66  A    between atoms: _167  and  _168
REMARK   67  A    between atoms: _168  and  _169
REMARK   68  A    between atoms: _171  and  _173
REMARK   69  A    between atoms: _173  and  _174
REMARK   70  A    between atoms: _173  and  _176
REMARK   71  A    between atoms: _176  and  _177
REMARK   72  A    between atoms: _177  and  _178
REMARK   73  A    between atoms: _181  and  _183
REMARK   74  A    between atoms: _183  and  _184
REMARK   75  A    between atoms: _183  and  _186
REMARK   76  A    between atoms: _186  and  _187
REMARK   77  A    between atoms: _192  and  _193
REMARK   78  A    between atoms: _195  and  _197
REMARK   79  A    between atoms: _197  and  _198
REMARK   80  A    between atoms: _197  and  _200
REMARK   81  A    between atoms: _200  and  _201
REMARK   82  A    between atoms: _201  and  _202
REMARK   83  A    between atoms: _202  and  _203
REMARK   84  A    between atoms: _212  and  _214
REMARK   85  A    between atoms: _214  and  _215
REMARK   86  A    between atoms: _214  and  _217
REMARK   87  A    between atoms: _217  and  _218
REMARK   88  A    between atoms: _218  and  _219
REMARK   89  A    between atoms: _222  and  _224
REMARK   90  A    between atoms: _224  and  _225
REMARK   91  A    between atoms: _224  and  _227
REMARK   92  A    between atoms: _227  and  _228
REMARK   93  A    between atoms: _228  and  _229
REMARK   94  A    between atoms: _234  and  _236
REMARK   95  A    between atoms: _236  and  _237
REMARK   96  A    between atoms: _236  and  _239
REMARK   97  A    between atoms: _239  and  _240
REMARK   98  A    between atoms: _240  and  _241
REMARK   99  A    between atoms: _241  and  _242
REMARK  100  A    between atoms: _242  and  _243
REMARK  101  A    between atoms: _247  and  _249
REMARK  102  A    between atoms: _249  and  _250
REMARK  103  A    between atoms: _253  and  _255
REMARK  104  A    between atoms: _255  and  _256
REMARK  105  A    between atoms: _255  and  _258
REMARK  106  A    between atoms: _258  and  _259
REMARK  107  A    between atoms: _259  and  _260
REMARK  108  A    between atoms: _260  and  _261
REMARK  109  A    between atoms: _261  and  _262
REMARK  110  A    between atoms: _266  and  _268
REMARK  111  A    between atoms: _268  and  _269
REMARK  112  A    between atoms: _271  and  _273
REMARK  113  A    between atoms: _273  and  _274
REMARK  114  A    between atoms: _273  and  _276
REMARK  115  A    between atoms: _276  and  _277
REMARK  116  A    between atoms: _282  and  _284
REMARK  117  A    between atoms: _284  and  _285
REMARK  118  A    between atoms: _284  and  _287
REMARK  119  A    between atoms: _287  and  _288
REMARK  120  A    between atoms: _288  and  _289
REMARK  121  A    between atoms: _292  and  _294
REMARK  122  A    between atoms: _294  and  _295
REMARK  123  A    between atoms: _294  and  _297
REMARK  124  A    between atoms: _297  and  _298
REMARK  125  A    between atoms: _298  and  _299
REMARK  126  A    between atoms: _304  and  _306
REMARK  127  A    between atoms: _306  and  _307
REMARK  128  A    between atoms: _306  and  _309
REMARK  129  A    between atoms: _309  and  _310
REMARK  130  A    between atoms: _312  and  _314
REMARK  131  A    between atoms: _314  and  _315
REMARK  132  A    between atoms: _314  and  _317
REMARK  133  A    between atoms: _317  and  _318
REMARK  134  A    between atoms: _324  and  _326
REMARK  135  A    between atoms: _326  and  _327
REMARK  136  A    between atoms: _326  and  _329
REMARK  137  A    between atoms: _329  and  _330
REMARK  138  A    between atoms: _330  and  _331
REMARK  139  A    between atoms: _331  and  _332
REMARK  140  A    between atoms: _341  and  _343
REMARK  141  A    between atoms: _343  and  _344
REMARK  142  A    between atoms: _343  and  _346
REMARK  143  A    between atoms: _349  and  _351
REMARK  144  A    between atoms: _351  and  _352
REMARK  145  A    between atoms: _351  and  _354
REMARK  146  A    between atoms: _354  and  _355
REMARK  147  A    between atoms: _358  and  _360
REMARK  148  A    between atoms: _360  and  _361
REMARK  149  A    between atoms: _360  and  _363
REMARK  150  A    between atoms: _363  and  _364
REMARK  151  A    between atoms: _367  and  _369
REMARK  152  A    between atoms: _369  and  _370
REMARK  153  A    between atoms: _369  and  _372
REMARK  154  A    between atoms: _372  and  _373
REMARK  155  A    between atoms: _373  and  _374
REMARK  156  A    between atoms: _374  and  _375
REMARK  157  A    between atoms: _384  and  _386
REMARK  158  A    between atoms: _386  and  _387
REMARK  159  A    between atoms: _386  and  _389
REMARK  160  A    between atoms: _389  and  _390
REMARK  161  A    between atoms: _393  and  _395
REMARK  162  A    between atoms: _395  and  _396
REMARK  163  A    between atoms: _395  and  _398
REMARK  164  A    between atoms: _398  and  _399
REMARK  165  A    between atoms: _402  and  _404
REMARK  166  A    between atoms: _404  and  _405
REMARK  167  A    between atoms: _404  and  _407
REMARK  168  A    between atoms: _407  and  _408
REMARK  169  A    between atoms: _411  and  _413
REMARK  170  A    between atoms: _413  and  _414
REMARK  171  A    between atoms: _413  and  _416
REMARK  172  A    between atoms: _416  and  _417
REMARK  173  A    between atoms: _422  and  _423
REMARK  174  A    between atoms: _425  and  _427
REMARK  175  A    between atoms: _427  and  _428
REMARK  176  A    between atoms: _427  and  _430
REMARK  177  A    between atoms: _430  and  _431
REMARK  178  A    between atoms: _436  and  _437
REMARK  179  A    between atoms: _439  and  _441
REMARK  180  A    between atoms: _441  and  _442
REMARK  181  A    between atoms: _441  and  _444
REMARK  182  A    between atoms: _444  and  _445
REMARK  183  A    between atoms: _448  and  _450
REMARK  184  A    between atoms: _450  and  _451
REMARK  185  A    between atoms: _450  and  _453
REMARK  186  A    between atoms: _456  and  _458
REMARK  187  A    between atoms: _458  and  _459
REMARK  188  A    between atoms: _458  and  _461
REMARK  189  A    between atoms: _461  and  _462
REMARK  190  A    between atoms: _465  and  _467
REMARK  191  A    between atoms: _467  and  _468
REMARK  192  A    between atoms: _467  and  _470
REMARK  193  A    between atoms: _470  and  _471
REMARK  194  A    between atoms: _473  and  _475
REMARK  195  A    between atoms: _475  and  _476
REMARK  196  A    between atoms: _478  and  _480
REMARK  197  A    between atoms: _480  and  _481
REMARK  198  A    between atoms: _480  and  _483
REMARK  199  A    between atoms: _483  and  _484
REMARK  200  A    between atoms: _489  and  _490
REMARK  201  A    between atoms: _492  and  _494
REMARK  202  A    between atoms: _494  and  _495
REMARK  203  A    between atoms: _494  and  _497
REMARK  204  A    between atoms: _497  and  _498
REMARK  205  A    between atoms: _498  and  _499
REMARK  206  A    between atoms: _504  and  _506
REMARK  207  A    between atoms: _506  and  _507
REMARK  208  A    between atoms: _506  and  _509
REMARK  209  A    between atoms: _509  and  _510
REMARK  210  A    between atoms: _510  and  _511
REMARK  211  A    between atoms: _516  and  _518
REMARK  212  A    between atoms: _518  and  _519
REMARK  213  A    between atoms: _518  and  _521
REMARK  214  A    between atoms: _521  and  _522
REMARK  215  A    between atoms: _527  and  _528
REMARK  216  A    between atoms: _530  and  _532
REMARK  217  A    between atoms: _532  and  _533
REMARK  218  A    between atoms: _532  and  _535
REMARK  219  A    between atoms: _535  and  _536
REMARK  220  A    between atoms: _541  and  _542
REMARK  221  A    between atoms: _544  and  _546
REMARK  222  A    between atoms: _546  and  _547
REMARK  223  A    between atoms: _546  and  _549
REMARK  224  A    between atoms: _549  and  _550
REMARK  225  A    between atoms: _555  and  _556
REMARK  226  A    between atoms: _558  and  _560
REMARK  227  A    between atoms: _560  and  _561
REMARK  228  A    between atoms: _560  and  _563
REMARK  229  A    between atoms: _563  and  _564
REMARK  230  A    between atoms: _567  and  _569
REMARK  231  A    between atoms: _569  and  _570
REMARK  232  A    between atoms: _569  and  _572
REMARK  233  A    between atoms: _572  and  _573
REMARK  234  A    between atoms: _583  and  _585
REMARK  235  A    between atoms: _585  and  _586
REMARK  236  A    between atoms: _589  and  _591
REMARK  237  A    between atoms: _591  and  _592
REMARK  238  A    between atoms: _595  and  _597
REMARK  239  A    between atoms: _597  and  _598
REMARK  240  A    between atoms: _597  and  _600
REMARK  241  A    between atoms: _600  and  _601
REMARK  242  A    between atoms: _604  and  _606
REMARK  243  A    between atoms: _606  and  _607
REMARK  244  A    between atoms: _606  and  _609
REMARK  245  A    between atoms: _609  and  _610
REMARK  246  A    between atoms: _613  and  _615
REMARK  247  A    between atoms: _615  and  _616
REMARK  248  A    between atoms: _615  and  _618
REMARK  249  A    between atoms: _618  and  _619
REMARK  250  A    between atoms: _622  and  _624
REMARK  251  A    between atoms: _624  and  _625
REMARK  252  A    between atoms: _624  and  _627
REMARK  253  A    between atoms: _627  and  _628
REMARK  254  A    between atoms: _628  and  _629
REMARK  255  A    between atoms: _629  and  _630
REMARK  256  A    between atoms: _630  and  _631
REMARK  257  A    between atoms: _635  and  _637
REMARK  258  A    between atoms: _637  and  _638
REMARK  259  A    between atoms: _637  and  _640
REMARK  260  A    between atoms: _640  and  _641
REMARK  261  A    between atoms: _646  and  _648
REMARK  262  A    between atoms: _648  and  _649
REMARK  263  A    between atoms: _648  and  _651
REMARK  264  A    between atoms: _651  and  _652
REMARK  265  A    between atoms: _652  and  _653
REMARK  266  A    between atoms: _653  and  _654
REMARK  267  A    between atoms: _654  and  _655
REMARK  268  A    between atoms: _659  and  _661
REMARK  269  A    between atoms: _661  and  _662
REMARK  270  A    between atoms: _661  and  _664
REMARK  271  A    between atoms: _664  and  _665
REMARK  272  A    between atoms: _675  and  _677
REMARK  273  A    between atoms: _677  and  _678
REMARK  274  A    between atoms: _681  and  _683
REMARK  275  A    between atoms: _683  and  _684
REMARK  276  A    between atoms: _686  and  _688
REMARK  277  A    between atoms: _688  and  _689
REMARK  278  A    between atoms: _688  and  _691
REMARK  279  A    between atoms: _691  and  _692
REMARK  280  A    between atoms: _692  and  _693
REMARK  281  A    between atoms: _696  and  _698
REMARK  282  A    between atoms: _698  and  _699
REMARK  283  A    between atoms: _702  and  _704
REMARK  284  A    between atoms: _704  and  _705
REMARK  285  A    between atoms: _704  and  _707
REMARK  286  A    between atoms: _707  and  _708
REMARK  287  A    between atoms: _708  and  _709
REMARK  288  A    between atoms: _712  and  _714
REMARK  289  A    between atoms: _714  and  _715
REMARK  290  A    between atoms: _714  and  _717
REMARK  291  A    between atoms: _717  and  _718
REMARK  292  A    between atoms: _718  and  _719
REMARK  293  A    between atoms: _719  and  _720
REMARK  294  A    between atoms: _729  and  _731
REMARK  295  A    between atoms: _731  and  _732
REMARK  296  A    between atoms: _731  and  _734
REMARK  297  A    between atoms: _734  and  _735
REMARK  298  A    between atoms: _738  and  _740
REMARK  299  A    between atoms: _740  and  _741
REMARK  300  A    between atoms: _740  and  _743
REMARK  301  A    between atoms: _743  and  _744
REMARK  302  A    between atoms: _744  and  _745
REMARK  303  A    between atoms: _745  and  _746
REMARK  304  A    between atoms: _755  and  _757
REMARK  305  A    between atoms: _757  and  _758
REMARK  306  A    between atoms: _761  and  _763
REMARK  307  A    between atoms: _763  and  _764
REMARK  308  A    between atoms: _763  and  _766
REMARK  309  A    between atoms: _766  and  _767
REMARK  310  A    between atoms: _772  and  _773
REMARK  311  A    between atoms: _775  and  _777
REMARK  312  A    between atoms: _777  and  _778
REMARK  313  A    between atoms: _777  and  _780
REMARK  314  A    between atoms: _780  and  _781
REMARK  315  A    between atoms: _784  and  _786
REMARK  316  A    between atoms: _786  and  _787
REMARK  317  A    between atoms: _786  and  _789
REMARK  318  A    between atoms: _789  and  _790
REMARK  319  A    between atoms: _793  and  _795
REMARK  320  A    between atoms: _795  and  _796
REMARK  321  A    between atoms: _795  and  _798
REMARK  322  A    between atoms: _800  and  _802
REMARK  323  A    between atoms: _802  and  _803
REMARK  324  A    between atoms: _802  and  _805
REMARK  325  A    between atoms: _808  and  _810
REMARK  326  A    between atoms: _810  and  _811
REMARK  327  A    between atoms: _810  and  _813
REMARK  328  A    between atoms: _813  and  _814
REMARK  329  A    between atoms: _814  and  _815
REMARK  330  A    between atoms: _818  and  _820
REMARK  331  A    between atoms: _820  and  _821
REMARK  332  A    between atoms: _820  and  _823
REMARK  333  A    between atoms: _823  and  _824
REMARK  334  A    between atoms: _834  and  _836
REMARK  335  A    between atoms: _836  and  _837
REMARK  336  A    between atoms: _836  and  _839
REMARK  337  A    between atoms: _839  and  _840
REMARK  338  A    between atoms: _843  and  _845
REMARK  339  A    between atoms: _845  and  _846
REMARK  340  A    between atoms: _845  and  _848
REMARK  341  A    between atoms: _848  and  _849
REMARK  342  A    between atoms: _849  and  _850
REMARK  343  A    between atoms: _850  and  _851
REMARK  344  A    between atoms: _860  and  _862
REMARK  345  A    between atoms: _862  and  _863
REMARK  346  A    between atoms: _862  and  _865
REMARK  347  A    between atoms: _865  and  _866
REMARK  348  A    between atoms: _871  and  _872
REMARK  349  A    between atoms: _874  and  _876
REMARK  350  A    between atoms: _876  and  _877
REMARK  351  A    between atoms: _876  and  _879
REMARK  352  A    between atoms: _879  and  _880
REMARK  353  A    between atoms: _880  and  _881
REMARK  354  A    between atoms: _886  and  _888
REMARK  355  A    between atoms: _888  and  _889
REMARK  356  A    between atoms: _888  and  _891
REMARK  357  A    between atoms: _891  and  _892
REMARK  358  A    between atoms: _895  and  _897
REMARK  359  A    between atoms: _897  and  _898
REMARK  360  A    between atoms: _897  and  _900
REMARK  361  A    between atoms: _900  and  _901
REMARK  362  A    between atoms: _903  and  _905
REMARK  363  A    between atoms: _905  and  _906
REMARK  364  A    between atoms: _905  and  _908
REMARK  365  A    between atoms: _908  and  _909
REMARK  366  A    between atoms: _911  and  _913
REMARK  367  A    between atoms: _913  and  _914
REMARK  368  A    between atoms: _913  and  _916
REMARK  369  A    between atoms: _916  and  _917
REMARK  370  A    between atoms: _923  and  _925
REMARK  371  A    between atoms: _925  and  _926
REMARK  372  A    between atoms: _925  and  _928
REMARK  373  A    between atoms: _928  and  _929
REMARK  374  A    between atoms: _929  and  _930
REMARK  375  A    between atoms: _930  and  _931
REMARK  376  A    between atoms: _940  and  _942
REMARK  377  A    between atoms: _942  and  _943
REMARK  378  A    between atoms: _942  and  _945
REMARK  379  A    between atoms: _945  and  _946
REMARK  380  A    between atoms: _946  and  _947
REMARK  381  A    between atoms: _947  and  _948
REMARK  382  A    between atoms: _957  and  _959
REMARK  383  A    between atoms: _959  and  _960
REMARK  384  A    between atoms: _962  and  _964
REMARK  385  A    between atoms: _964  and  _965
REMARK  386  A    between atoms: _964  and  _967
REMARK  387  A    between atoms: _967  and  _968
REMARK  388  A    between atoms: _974  and  _975
REMARK  389  A    between atoms: _980  and  _982
REMARK  390  A    between atoms: _982  and  _983
REMARK  391  A    between atoms: _982  and  _985
REMARK  392  A    between atoms: _985  and  _986
REMARK  393  A    between atoms: _996  and  _998
REMARK  394  A    between atoms: _998  and  _999
REMARK  395  A    between atoms: _998  and  _1001
REMARK  396  A    between atoms: _1001  and  _1002
REMARK  397  A    between atoms: _1002  and  _1003
REMARK  398  A    between atoms: _1003  and  _1004
REMARK  399  A    between atoms: _1013  and  _1015
REMARK  400  A    between atoms: _1015  and  _1016
REMARK  401  A    between atoms: _1015  and  _1018
REMARK  402  A    between atoms: _1018  and  _1019
REMARK  403  A    between atoms: _1021  and  _1023
REMARK  404  A    between atoms: _1023  and  _1024
REMARK  405  A    between atoms: _1027  and  _1029
REMARK  406  A    between atoms: _1029  and  _1030
REMARK  407  A    between atoms: _1029  and  _1032
REMARK  408  A    between atoms: _1032  and  _1033
REMARK  409  A    between atoms: _1036  and  _1038
REMARK  410  A    between atoms: _1038  and  _1039
REMARK  411  A    between atoms: _1038  and  _1041
REMARK  412  A    between atoms: _1041  and  _1042
REMARK  413  A    between atoms: _1042  and  _1043
REMARK  414  A    between atoms: _1043  and  _1044
REMARK  415  A    between atoms: _1053  and  _1055
REMARK  416  A    between atoms: _1055  and  _1056
REMARK  417  A    between atoms: _1055  and  _1058
REMARK  418  A    between atoms: _1061  and  _1063
REMARK  419  A    between atoms: _1063  and  _1064
REMARK  420  A    between atoms: _1066  and  _1068
REMARK  421  A    between atoms: _1068  and  _1069
REMARK  422  A    between atoms: _1068  and  _1071
REMARK  423  A    between atoms: _1071  and  _1072
REMARK                            x       y       z     vdW  Elec       q    Type
REMARK                         _______ _______ _______ _____ _____    ______ ____
ROOT
ATOM      1  CG  TYR A   1      29.248  34.115  42.385  0.00  0.00    -0.021 A 
ATOM      2  CD2 TYR A   1      28.138  33.342  42.680  0.00  0.00    -0.001 A 
ATOM      3  CE2 TYR A   1      26.870  33.851  42.657  0.00  0.00    +0.036 A 
ATOM      4  CZ  TYR A   1      26.660  35.164  42.322  0.00  0.00    +0.134 A 
ATOM      5  CE1 TYR A   1      27.741  35.959  42.008  0.00  0.00    +0.036 A 
ATOM      6  CD1 TYR A   1      29.025  35.421  42.018  0.00  0.00    -0.001 A 
ENDROOT
BRANCH   4   7
ATOM      7  OH  TYR A   1      25.365  35.661  42.330  0.00  0.00    -0.506 OA
ATOM      8  HH  TYR A   1      24.737  34.938  42.579  0.00  0.00    +0.292 HD
ENDBRANCH   4   7
BRANCH   1   9
ATOM      9  CB  TYR A   1      30.630  33.460  42.399  0.00  0.00    +0.046 C 
BRANCH   9  10
ATOM     10  CA  TYR A   1      30.660  32.482  41.227  0.00  0.00    +0.106 C 
BRANCH  10  11
ATOM     11  N   TYR A   1      31.142  31.156  41.577  0.00  0.00    -0.244 NA
ATOM     12  H   TYR A   1      31.460  30.924  42.539  0.00  0.00    +0.141 HD
ENDBRANCH  10  11
BRANCH  10  13
ATOM     13  C   TYR A   1      31.707  32.964  40.211  0.00  0.00    +0.199 C 
ATOM     14  O   TYR A   1      32.877  32.778  40.547  0.00  0.00    -0.219 OA
ENDBRANCH  10  13
ENDBRANCH   9  10
ENDBRANCH   1   9
TORSDOF 5
REMARK  Name = ../refined-set-2016/1fo0/1fo0_pocket.pdb
REMARK  423 active torsions:
REMARK  status: ('A' for Active; 'I' for Inactive)
REMARK    1  A    between atoms: _1  and  _3
REMARK    2  A    between atoms: _3  and  _4
REMARK    3  A    between atoms: _3  and  _6
REMARK    4  A    between atoms: _6  and  _7
REMARK    5  A    between atoms: _10  and  _12
REMARK    6  A    between atoms: _12  and  _13
REMARK    7  A    between atoms: _12  and  _15
REMARK    8  A    between atoms: _15  and  _16
REMARK    9  A    between atoms: _16  and  _17
REMARK   10  A    between atoms: _17  and  _18
REMARK   11  A    between atoms: _27  and  _29
REMARK   12  A    between atoms: _29  and  _30
REMARK   13  A    between atoms: _29  and  _32
REMARK   14  A    between atoms: _32  and  _33
REMARK   15  A    between atoms: _38  and  _39
REMARK   16  A    between atoms: _41  and  _43
REMARK   17  A    between atoms: _43  and  _44
REMARK   18  A    between atoms: _43  and  _46
REMARK   19  A    between atoms: _46  and  _47
REMARK   20  A    between atoms: _53  and  _55
REMARK   21  A    between atoms: _55  and  _56
REMARK   22  A    between atoms: _55  and  _58
REMARK   23  A    between atoms: _61  and  _63
REMARK   24  A    between atoms: _63  and  _64
REMARK   25  A    between atoms: _63  and  _66
REMARK   26  A    between atoms: _66  and  _67
REMARK   27  A    between atoms: _70  and  _72
REMARK   28  A    between atoms: _72  and  _73
REMARK   29  A    between atoms: _72  and  _75
REMARK   30  A    between atoms: _75  and  _76
REMARK   31  A    between atoms: _81  and  _82
REMARK   32  A    between atoms: _84  and  _86
REMARK   33  A    between atoms: _86  and  _87
REMARK   34  A    between atoms: _86  and  _89
REMARK   35  A    between atoms: _89  and  _90
REMARK   36  A    between atoms: _90  and  _91
REMARK   37  A    between atoms: _93  and  _95
REMARK   38  A    between atoms: _95  and  _96
REMARK   39  A    between atoms: _95  and  _98
REMARK   40  A    between atoms: _98  and  _99
REMARK   41  A    between atoms: _99  and  _100
REMARK   42  A    between atoms: _103  and  _105
REMARK   43  A    between atoms: _105  and  _106
REMARK   44  A    between atoms: _105  and  _108
REMARK   45  A    between atoms: _111  and  _113
REMARK   46  A    between atoms: _113  and  _114
REMARK   47  A    between atoms: _116  and  _118
REMARK   48  A    between atoms: _118  and  _119
REMARK   49  A    between atoms: _118  and  _121
REMARK   50  A    between atoms: _121  and  _122
REMARK   51  A    between atoms: _128  and  _130
REMARK   52  A    between atoms: _130  and  _131
REMARK   53  A    between atoms: _130  and  _133
REMARK   54  A    between atoms: _136  and  _138
REMARK   55  A    between atoms: _138  and  _139
REMARK   56  A    between atoms: _138  and  _141
REMARK   57  A    between atoms: _141  and  _142
REMARK   58  A    between atoms: _148  and  _150
REMARK   59  A    between atoms: _150  and  _151
REMARK   60  A    between atoms: _150  and  _153
REMARK   61  A    between atoms: _153  and  _154
REMARK   62  A    between atoms: _159  and  _160
REMARK   63  A    between atoms: _162  and  _164
REMARK   64  A    between atoms: _164  and  _165
REMARK   65  A    between atoms: _164  and  _167
REMARK   66  A    between atoms: _167  and  _168
REMARK   67  A    between atoms: _168  and  _169
REMARK   68  A    between atoms: _171  and  _173
REMARK   69  A    between atoms: _173  and  _174
REMARK   70  A    between atoms: _173  and  _176
REMARK   71  A    between atoms: _176  and  _177
REMARK   72  A    between atoms: _177  and  _178
REMARK   73  A    between atoms: _181  and  _183
REMARK   74  A    between atoms: _183  and  _184
REMARK   75  A    between atoms: _183  and  _186
REMARK   76  A    between atoms: _186  and  _187
REMARK   77  A    between atoms: _192  and  _193
REMARK   78  A    between atoms: _195  and  _197
REMARK   79  A    between atoms: _197  and  _198
REMARK   80  A    between atoms: _197  and  _200
REMARK   81  A    between atoms: _200  and  _201
REMARK   82  A    between atoms: _201  and  _202
REMARK   83  A    between atoms: _202  and  _203
REMARK   84  A    between atoms: _212  and  _214
REMARK   85  A    between atoms: _214  and  _215
REMARK   86  A    between atoms: _214  and  _217
REMARK   87  A    between atoms: _217  and  _218
REMARK   88  A    between atoms: _218  and  _219
REMARK   89  A    between atoms: _222  and  _224
REMARK   90  A    between atoms: _224  and  _225
REMARK   91  A    between atoms: _224  and  _227
REMARK   92  A    between atoms: _227  and  _228
REMARK   93  A    between atoms: _228  and  _229
REMARK   94  A    between atoms: _234  and  _236
REMARK   95  A    between atoms: _236  and  _237
REMARK   96  A    between atoms: _236  and  _239
REMARK   97  A    between atoms: _239  and  _240
REMARK   98  A    between atoms: _240  and  _241
REMARK   99  A    between atoms: _241  and  _242
REMARK  100  A    between atoms: _242  and  _243
REMARK  101  A    between atoms: _247  and  _249
REMARK  102  A    between atoms: _249  and  _250
REMARK  103  A    between atoms: _253  and  _255
REMARK  104  A    between atoms: _255  and  _256
REMARK  105  A    between atoms: _255  and  _258
REMARK  106  A    between atoms: _258  and  _259
REMARK  107  A    between atoms: _259  and  _260
REMARK  108  A    between atoms: _260  and  _261
REMARK  109  A    between atoms: _261  and  _262
REMARK  110  A    between atoms: _266  and  _268
REMARK  111  A    between atoms: _268  and  _269
REMARK  112  A    between atoms: _271  and  _273
REMARK  113  A    between atoms: _273  and  _274
REMARK  114  A    between atoms: _273  and  _276
REMARK  115  A    between atoms: _276  and  _277
REMARK  116  A    between atoms: _282  and  _284
REMARK  117  A    between atoms: _284  and  _285
REMARK  118  A    between atoms: _284  and  _287
REMARK  119  A    between atoms: _287  and  _288
REMARK  120  A    between atoms: _288  and  _289
REMARK  121  A    between atoms: _292  and  _294
REMARK  122  A    between atoms: _294  and  _295
REMARK  123  A    between atoms: _294  and  _297
REMARK  124  A    between atoms: _297  and  _298
REMARK  125  A    between atoms: _298  and  _299
REMARK  126  A    between atoms: _304  and  _306
REMARK  127  A    between atoms: _306  and  _307
REMARK  128  A    between atoms: _306  and  _309
REMARK  129  A    between atoms: _309  and  _310
REMARK  130  A    between atoms: _312  and  _314
REMARK  131  A    between atoms: _314  and  _315
REMARK  132  A    between atoms: _314  and  _317
REMARK  133  A    between atoms: _317  and  _318
REMARK  134  A    between atoms: _324  and  _326
REMARK  135  A    between atoms: _326  and  _327
REMARK  136  A    between atoms: _326  and  _329
REMARK  137  A    between atoms: _329  and  _330
REMARK  138  A    between atoms: _330  and  _331
REMARK  139  A    between atoms: _331  and  _332
REMARK  140  A    between atoms: _341  and  _343
REMARK  141  A    between atoms: _343  and  _344
REMARK  142  A    between atoms: _343  and  _346
REMARK  143  A    between atoms: _349  and  _351
REMARK  144  A    between atoms: _351  and  _352
REMARK  145  A    between atoms: _351  and  _354
REMARK  146  A    between atoms: _354  and  _355
REMARK  147  A    between atoms: _358  and  _360
REMARK  148  A    between atoms: _360  and  _361
REMARK  149  A    between atoms: _360  and  _363
REMARK  150  A    between atoms: _363  and  _364
REMARK  151  A    between atoms: _367  and  _369
REMARK  152  A    between atoms: _369  and  _370
REMARK  153  A    between atoms: _369  and  _372
REMARK  154  A    between atoms: _372  and  _373
REMARK  155  A    between atoms: _373  and  _374
REMARK  156  A    between atoms: _374  and  _375
REMARK  157  A    between atoms: _384  and  _386
REMARK  158  A    between atoms: _386  and  _387
REMARK  159  A    between atoms: _386  and  _389
REMARK  160  A    between atoms: _389  and  _390
REMARK  161  A    between atoms: _393  and  _395
REMARK  162  A    between atoms: _395  and  _396
REMARK  163  A    between atoms: _395  and  _398
REMARK  164  A    between atoms: _398  and  _399
REMARK  165  A    between atoms: _402  and  _404
REMARK  166  A    between atoms: _404  and  _405
REMARK  167  A    between atoms: _404  and  _407
REMARK  168  A    between atoms: _407  and  _408
REMARK  169  A    between atoms: _411  and  _413
REMARK  170  A    between atoms: _413  and  _414
REMARK  171  A    between atoms: _413  and  _416
REMARK  172  A    between atoms: _416  and  _417
REMARK  173  A    between atoms: _422  and  _423
REMARK  174  A    between atoms: _425  and  _427
REMARK  175  A    between atoms: _427  and  _428
REMARK  176  A    between atoms: _427  and  _430
REMARK  177  A    between atoms: _430  and  _431
REMARK  178  A    between atoms: _436  and  _437
REMARK  179  A    between atoms: _439  and  _441
REMARK  180  A    between atoms: _441  and  _442
REMARK  181  A    between atoms: _441  and  _444
REMARK  182  A    between atoms: _444  and  _445
REMARK  183  A    between atoms: _448  and  _450
REMARK  184  A    between atoms: _450  and  _451
REMARK  185  A    between atoms: _450  and  _453
REMARK  186  A    between atoms: _456  and  _458
REMARK  187  A    between atoms: _458  and  _459
REMARK  188  A    between atoms: _458  and  _461
REMARK  189  A    between atoms: _461  and  _462
REMARK  190  A    between atoms: _465  and  _467
REMARK  191  A    between atoms: _467  and  _468
REMARK  192  A    between atoms: _467  and  _470
REMARK  193  A    between atoms: _470  and  _471
REMARK  194  A    between atoms: _473  and  _475
REMARK  195  A    between atoms: _475  and  _476
REMARK  196  A    between atoms: _478  and  _480
REMARK  197  A    between atoms: _480  and  _481
REMARK  198  A    between atoms: _480  and  _483
REMARK  199  A    between atoms: _483  and  _484
REMARK  200  A    between atoms: _489  and  _490
REMARK  201  A    between atoms: _492  and  _494
REMARK  202  A    between atoms: _494  and  _495
REMARK  203  A    between atoms: _494  and  _497
REMARK  204  A    between atoms: _497  and  _498
REMARK  205  A    between atoms: _498  and  _499
REMARK  206  A    between atoms: _504  and  _506
REMARK  207  A    between atoms: _506  and  _507
REMARK  208  A    between atoms: _506  and  _509
REMARK  209  A    between atoms: _509  and  _510
REMARK  210  A    between atoms: _510  and  _511
REMARK  211  A    between atoms: _516  and  _518
REMARK  212  A    between atoms: _518  and  _519
REMARK  213  A    between atoms: _518  and  _521
REMARK  214  A    between atoms: _521  and  _522
REMARK  215  A    between atoms: _527  and  _528
REMARK  216  A    between atoms: _530  and  _532
REMARK  217  A    between atoms: _532  and  _533
REMARK  218  A    between atoms: _532  and  _535
REMARK  219  A    between atoms: _535  and  _536
REMARK  220  A    between atoms: _541  and  _542
REMARK  221  A    between atoms: _544  and  _546
REMARK  222  A    between atoms: _546  and  _547
REMARK  223  A    between atoms: _546  and  _549
REMARK  224  A    between atoms: _549  and  _550
REMARK  225  A    between atoms: _555  and  _556
REMARK  226  A    between atoms: _558  and  _560
REMARK  227  A    between atoms: _560  and  _561
REMARK  228  A    between atoms: _560  and  _563
REMARK  229  A    between atoms: _563  and  _564
REMARK  230  A    between atoms: _567  and  _569
REMARK  231  A    between atoms: _569  and  _570
REMARK  232  A    between atoms: _569  and  _572
REMARK  233  A    between atoms: _572  and  _573
REMARK  234  A    between atoms: _583  and  _585
REMARK  235  A    between atoms: _585  and  _586
REMARK  236  A    between atoms: _589  and  _591
REMARK  237  A    between atoms: _591  and  _592
REMARK  238  A    between atoms: _595  and  _597
REMARK  239  A    between atoms: _597  and  _598
REMARK  240  A    between atoms: _597  and  _600
REMARK  241  A    between atoms: _600  and  _601
REMARK  242  A    between atoms: _604  and  _606
REMARK  243  A    between atoms: _606  and  _607
REMARK  244  A    between atoms: _606  and  _609
REMARK  245  A    between atoms: _609  and  _610
REMARK  246  A    between atoms: _613  and  _615
REMARK  247  A    between atoms: _615  and  _616
REMARK  248  A    between atoms: _615  and  _618
REMARK  249  A    between atoms: _618  and  _619
REMARK  250  A    between atoms: _622  and  _624
REMARK  251  A    between atoms: _624  and  _625
REMARK  252  A    between atoms: _624  and  _627
REMARK  253  A    between atoms: _627  and  _628
REMARK  254  A    between atoms: _628  and  _629
REMARK  255  A    between atoms: _629  and  _630
REMARK  256  A    between atoms: _630  and  _631
REMARK  257  A    between atoms: _635  and  _637
REMARK  258  A    between atoms: _637  and  _638
REMARK  259  A    between atoms: _637  and  _640
REMARK  260  A    between atoms: _640  and  _641
REMARK  261  A    between atoms: _646  and  _648
REMARK  262  A    between atoms: _648  and  _649
REMARK  263  A    between atoms: _648  and  _651
REMARK  264  A    between atoms: _651  and  _652
REMARK  265  A    between atoms: _652  and  _653
REMARK  266  A    between atoms: _653  and  _654
REMARK  267  A    between atoms: _654  and  _655
REMARK  268  A    between atoms: _659  and  _661
REMARK  269  A    between atoms: _661  and  _662
REMARK  270  A    between atoms: _661  and  _664
REMARK  271  A    between atoms: _664  and  _665
REMARK  272  A    between atoms: _675  and  _677
REMARK  273  A    between atoms: _677  and  _678
REMARK  274  A    between atoms: _681  and  _683
REMARK  275  A    between atoms: _683  and  _684
REMARK  276  A    between atoms: _686  and  _688
REMARK  277  A    between atoms: _688  and  _689
REMARK  278  A    between atoms: _688  and  _691
REMARK  279  A    between atoms: _691  and  _692
REMARK  280  A    between atoms: _692  and  _693
REMARK  281  A    between atoms: _696  and  _698
REMARK  282  A    between atoms: _698  and  _699
REMARK  283  A    between atoms: _702  and  _704
REMARK  284  A    between atoms: _704  and  _705
REMARK  285  A    between atoms: _704  and  _707
REMARK  286  A    between atoms: _707  and  _708
REMARK  287  A    between atoms: _708  and  _709
REMARK  288  A    between atoms: _712  and  _714
REMARK  289  A    between atoms: _714  and  _715
REMARK  290  A    between atoms: _714  and  _717
REMARK  291  A    between atoms: _717  and  _718
REMARK  292  A    between atoms: _718  and  _719
REMARK  293  A    between atoms: _719  and  _720
REMARK  294  A    between atoms: _729  and  _731
REMARK  295  A    between atoms: _731  and  _732
REMARK  296  A    between atoms: _731  and  _734
REMARK  297  A    between atoms: _734  and  _735
REMARK  298  A    between atoms: _738  and  _740
REMARK  299  A    between atoms: _740  and  _741
REMARK  300  A    between atoms: _740  and  _743
REMARK  301  A    between atoms: _743  and  _744
REMARK  302  A    between atoms: _744  and  _745
REMARK  303  A    between atoms: _745  and  _746
REMARK  304  A    between atoms: _755  and  _757
REMARK  305  A    between atoms: _757  and  _758
REMARK  306  A    between atoms: _761  and  _763
REMARK  307  A    between atoms: _763  and  _764
REMARK  308  A    between atoms: _763  and  _766
REMARK  309  A    between atoms: _766  and  _767
REMARK  310  A    between atoms: _772  and  _773
REMARK  311  A    between atoms: _775  and  _777
REMARK  312  A    between atoms: _777  and  _778
REMARK  313  A    between atoms: _777  and  _780
REMARK  314  A    between atoms: _780  and  _781
REMARK  315  A    between atoms: _784  and  _786
REMARK  316  A    between atoms: _786  and  _787
REMARK  317  A    between atoms: _786  and  _789
REMARK  318  A    between atoms: _789  and  _790
REMARK  319  A    between atoms: _793  and  _795
REMARK  320  A    between atoms: _795  and  _796
REMARK  321  A    between atoms: _795  and  _798
REMARK  322  A    between atoms: _800  and  _802
REMARK  323  A    between atoms: _802  and  _803
REMARK  324  A    between atoms: _802  and  _805
REMARK  325  A    between atoms: _808  and  _810
REMARK  326  A    between atoms: _810  and  _811
REMARK  327  A    between atoms: _810  and  _813
REMARK  328  A    between atoms: _813  and  _814
REMARK  329  A    between atoms: _814  and  _815
REMARK  330  A    between atoms: _818  and  _820
REMARK  331  A    between atoms: _820  and  _821
REMARK  332  A    between atoms: _820  and  _823
REMARK  333  A    between atoms: _823  and  _824
REMARK  334  A    between atoms: _834  and  _836
REMARK  335  A    between atoms: _836  and  _837
REMARK  336  A    between atoms: _836  and  _839
REMARK  337  A    between atoms: _839  and  _840
REMARK  338  A    between atoms: _843  and  _845
REMARK  339  A    between atoms: _845  and  _846
REMARK  340  A    between atoms: _845  and  _848
REMARK  341  A    between atoms: _848  and  _849
REMARK  342  A    between atoms: _849  and  _850
REMARK  343  A    between atoms: _850  and  _851
REMARK  344  A    between atoms: _860  and  _862
REMARK  345  A    between atoms: _862  and  _863
REMARK  346  A    between atoms: _862  and  _865
REMARK  347  A    between atoms: _865  and  _866
REMARK  348  A    between atoms: _871  and  _872
REMARK  349  A    between atoms: _874  and  _876
REMARK  350  A    between atoms: _876  and  _877
REMARK  351  A    between atoms: _876  and  _879
REMARK  352  A    between atoms: _879  and  _880
REMARK  353  A    between atoms: _880  and  _881
REMARK  354  A    between atoms: _886  and  _888
REMARK  355  A    between atoms: _888  and  _889
REMARK  356  A    between atoms: _888  and  _891
REMARK  357  A    between atoms: _891  and  _892
REMARK  358  A    between atoms: _895  and  _897
REMARK  359  A    between atoms: _897  and  _898
REMARK  360  A    between atoms: _897  and  _900
REMARK  361  A    between atoms: _900  and  _901
REMARK  362  A    between atoms: _903  and  _905
REMARK  363  A    between atoms: _905  and  _906
REMARK  364  A    between atoms: _905  and  _908
REMARK  365  A    between atoms: _908  and  _909
REMARK  366  A    between atoms: _911  and  _913
REMARK  367  A    between atoms: _913  and  _914
REMARK  368  A    between atoms: _913  and  _916
REMARK  369  A    between atoms: _916  and  _917
REMARK  370  A    between atoms: _923  and  _925
REMARK  371  A    between atoms: _925  and  _926
REMARK  372  A    between atoms: _925  and  _928
REMARK  373  A    between atoms: _928  and  _929
REMARK  374  A    between atoms: _929  and  _930
REMARK  375  A    between atoms: _930  and  _931
REMARK  376  A    between atoms: _940  and  _942
REMARK  377  A    between atoms: _942  and  _943
REMARK  378  A    between atoms: _942  and  _945
REMARK  379  A    between atoms: _945  and  _946
REMARK  380  A    between atoms: _946  and  _947
REMARK  381  A    between atoms: _947  and  _948
REMARK  382  A    between atoms: _957  and  _959
REMARK  383  A    between atoms: _959  and  _960
REMARK  384  A    between atoms: _962  and  _964
REMARK  385  A    between atoms: _964  and  _965
REMARK  386  A    between atoms: _964  and  _967
REMARK  387  A    between atoms: _967  and  _968
REMARK  388  A    between atoms: _974  and  _975
REMARK  389  A    between atoms: _980  and  _982
REMARK  390  A    between atoms: _982  and  _983
REMARK  391  A    between atoms: _982  and  _985
REMARK  392  A    between atoms: _985  and  _986
REMARK  393  A    between atoms: _996  and  _998
REMARK  394  A    between atoms: _998  and  _999
REMARK  395  A    between atoms: _998  and  _1001
REMARK  396  A    between atoms: _1001  and  _1002
REMARK  397  A    between atoms: _1002  and  _1003
REMARK  398  A    between atoms: _1003  and  _1004
REMARK  399  A    between atoms: _1013  and  _1015
REMARK  400  A    between atoms: _1015  and  _1016
REMARK  401  A    between atoms: _1015  and  _1018
REMARK  402  A    between atoms: _1018  and  _1019
REMARK  403  A    between atoms: _1021  and  _1023
REMARK  404  A    between atoms: _1023  and  _1024
REMARK  405  A    between atoms: _1027  and  _1029
REMARK  406  A    between atoms: _1029  and  _1030
REMARK  407  A    between atoms: _1029  and  _1032
REMARK  408  A    between atoms: _1032  and  _1033
REMARK  409  A    between atoms: _1036  and  _1038
REMARK  410  A    between atoms: _1038  and  _1039
REMARK  411  A    between atoms: _1038  and  _1041
REMARK  412  A    between atoms: _1041  and  _1042
REMARK  413  A    between atoms: _1042  and  _1043
REMARK  414  A    between atoms: _1043  and  _1044
REMARK  415  A    between atoms: _1053  and  _1055
REMARK  416  A    between atoms: _1055  and  _1056
REMARK  417  A    between atoms: _1055  and  _1058
REMARK  418  A    between atoms: _1061  and  _1063
REMARK  419  A    between atoms: _1063  and  _1064
REMARK  420  A    between atoms: _1066  and  _1068
REMARK  421  A    between atoms: _1068  and  _1069
REMARK  422  A    between atoms: _1068  and  _1071
REMARK  423  A    between atoms: _1071  and  _1072
REMARK                            x       y       z     vdW  Elec       q    Type
REMARK                         _______ _______ _______ _____ _____    ______ ____
ROOT
ATOM      1  CA  MET A   1      35.175  42.458  38.651  0.00  0.00    +0.134 C 
ENDROOT
BRANCH   1   2
ATOM      2  N   MET A   1      35.540  43.249  37.484  0.00  0.00    -0.239 NA
ATOM      3  H   MET A   1      35.215  42.933  36.548  0.00  0.00    +0.142 HD
ENDBRANCH   1   2
BRANCH   1   4
ATOM      4  C   MET A   1      36.393  41.702  39.172  0.00  0.00    +0.224 C 
ATOM      5  O   MET A   1      36.472  41.367  40.356  0.00  0.00    -0.287 OA
ENDBRANCH   1   4
BRANCH   1   6
ATOM      6  CB  MET A   1      34.028  41.484  38.366  0.00  0.00    +0.037 C 
BRANCH   6   7
ATOM      7  CG  MET A   1      32.632  41.925  38.753  0.00  0.00    +0.059 C 
BRANCH   7   8
ATOM      8  SD  MET A   1      32.554  42.872  40.277  0.00  0.00    -0.139 S 
ATOM      9  CE  MET A   1      32.432  41.584  41.498  0.00  0.00    +0.069 C 
ENDBRANCH   7   8
ENDBRANCH   6   7
ENDBRANCH   1   6
TORSDOF 5
REMARK  Name = ../refined-set-2016/1fo0/1fo0_pocket.pdb
REMARK  423 active torsions:
REMARK  status: ('A' for Active; 'I' for Inactive)
REMARK    1  A    between atoms: _1  and  _3
REMARK    2  A    between atoms: _3  and  _4
REMARK    3  A    between atoms: _3  and  _6
REMARK    4  A    between atoms: _6  and  _7
REMARK    5  A    between atoms: _10  and  _12
REMARK    6  A    between atoms: _12  and  _13
REMARK    7  A    between atoms: _12  and  _15
REMARK    8  A    between atoms: _15  and  _16
REMARK    9  A    between atoms: _16  and  _17
REMARK   10  A    between atoms: _17  and  _18
REMARK   11  A    between atoms: _27  and  _29
REMARK   12  A    between atoms: _29  and  _30
REMARK   13  A    between atoms: _29  and  _32
REMARK   14  A    between atoms: _32  and  _33
REMARK   15  A    between atoms: _38  and  _39
REMARK   16  A    between atoms: _41  and  _43
REMARK   17  A    between atoms: _43  and  _44
REMARK   18  A    between atoms: _43  and  _46
REMARK   19  A    between atoms: _46  and  _47
REMARK   20  A    between atoms: _53  and  _55
REMARK   21  A    between atoms: _55  and  _56
REMARK   22  A    between atoms: _55  and  _58
REMARK   23  A    between atoms: _61  and  _63
REMARK   24  A    between atoms: _63  and  _64
REMARK   25  A    between atoms: _63  and  _66
REMARK   26  A    between atoms: _66  and  _67
REMARK   27  A    between atoms: _70  and  _72
REMARK   28  A    between atoms: _72  and  _73
REMARK   29  A    between atoms: _72  and  _75
REMARK   30  A    between atoms: _75  and  _76
REMARK   31  A    between atoms: _81  and  _82
REMARK   32  A    between atoms: _84  and  _86
REMARK   33  A    between atoms: _86  and  _87
REMARK   34  A    between atoms: _86  and  _89
REMARK   35  A    between atoms: _89  and  _90
REMARK   36  A    between atoms: _90  and  _91
REMARK   37  A    between atoms: _93  and  _95
REMARK   38  A    between atoms: _95  and  _96
REMARK   39  A    between atoms: _95  and  _98
REMARK   40  A    between atoms: _98  and  _99
REMARK   41  A    between atoms: _99  and  _100
REMARK   42  A    between atoms: _103  and  _105
REMARK   43  A    between atoms: _105  and  _106
REMARK   44  A    between atoms: _105  and  _108
REMARK   45  A    between atoms: _111  and  _113
REMARK   46  A    between atoms: _113  and  _114
REMARK   47  A    between atoms: _116  and  _118
REMARK   48  A    between atoms: _118  and  _119
REMARK   49  A    between atoms: _118  and  _121
REMARK   50  A    between atoms: _121  and  _122
REMARK   51  A    between atoms: _128  and  _130
REMARK   52  A    between atoms: _130  and  _131
REMARK   53  A    between atoms: _130  and  _133
REMARK   54  A    between atoms: _136  and  _138
REMARK   55  A    between atoms: _138  and  _139
REMARK   56  A    between atoms: _138  and  _141
REMARK   57  A    between atoms: _141  and  _142
REMARK   58  A    between atoms: _148  and  _150
REMARK   59  A    between atoms: _150  and  _151
REMARK   60  A    between atoms: _150  and  _153
REMARK   61  A    between atoms: _153  and  _154
REMARK   62  A    between atoms: _159  and  _160
REMARK   63  A    between atoms: _162  and  _164
REMARK   64  A    between atoms: _164  and  _165
REMARK   65  A    between atoms: _164  and  _167
REMARK   66  A    between atoms: _167  and  _168
REMARK   67  A    between atoms: _168  and  _169
REMARK   68  A    between atoms: _171  and  _173
REMARK   69  A    between atoms: _173  and  _174
REMARK   70  A    between atoms: _173  and  _176
REMARK   71  A    between atoms: _176  and  _177
REMARK   72  A    between atoms: _177  and  _178
REMARK   73  A    between atoms: _181  and  _183
REMARK   74  A    between atoms: _183  and  _184
REMARK   75  A    between atoms: _183  and  _186
REMARK   76  A    between atoms: _186  and  _187
REMARK   77  A    between atoms: _192  and  _193
REMARK   78  A    between atoms: _195  and  _197
REMARK   79  A    between atoms: _197  and  _198
REMARK   80  A    between atoms: _197  and  _200
REMARK   81  A    between atoms: _200  and  _201
REMARK   82  A    between atoms: _201  and  _202
REMARK   83  A    between atoms: _202  and  _203
REMARK   84  A    between atoms: _212  and  _214
REMARK   85  A    between atoms: _214  and  _215
REMARK   86  A    between atoms: _214  and  _217
REMARK   87  A    between atoms: _217  and  _218
REMARK   88  A    between atoms: _218  and  _219
REMARK   89  A    between atoms: _222  and  _224
REMARK   90  A    between atoms: _224  and  _225
REMARK   91  A    between atoms: _224  and  _227
REMARK   92  A    between atoms: _227  and  _228
REMARK   93  A    between atoms: _228  and  _229
REMARK   94  A    between atoms: _234  and  _236
REMARK   95  A    between atoms: _236  and  _237
REMARK   96  A    between atoms: _236  and  _239
REMARK   97  A    between atoms: _239  and  _240
REMARK   98  A    between atoms: _240  and  _241
REMARK   99  A    between atoms: _241  and  _242
REMARK  100  A    between atoms: _242  and  _243
REMARK  101  A    between atoms: _247  and  _249
REMARK  102  A    between atoms: _249  and  _250
REMARK  103  A    between atoms: _253  and  _255
REMARK  104  A    between atoms: _255  and  _256
REMARK  105  A    between atoms: _255  and  _258
REMARK  106  A    between atoms: _258  and  _259
REMARK  107  A    between atoms: _259  and  _260
REMARK  108  A    between atoms: _260  and  _261
REMARK  109  A    between atoms: _261  and  _262
REMARK  110  A    between atoms: _266  and  _268
REMARK  111  A    between atoms: _268  and  _269
REMARK  112  A    between atoms: _271  and  _273
REMARK  113  A    between atoms: _273  and  _274
REMARK  114  A    between atoms: _273  and  _276
REMARK  115  A    between atoms: _276  and  _277
REMARK  116  A    between atoms: _282  and  _284
REMARK  117  A    between atoms: _284  and  _285
REMARK  118  A    between atoms: _284  and  _287
REMARK  119  A    between atoms: _287  and  _288
REMARK  120  A    between atoms: _288  and  _289
REMARK  121  A    between atoms: _292  and  _294
REMARK  122  A    between atoms: _294  and  _295
REMARK  123  A    between atoms: _294  and  _297
REMARK  124  A    between atoms: _297  and  _298
REMARK  125  A    between atoms: _298  and  _299
REMARK  126  A    between atoms: _304  and  _306
REMARK  127  A    between atoms: _306  and  _307
REMARK  128  A    between atoms: _306  and  _309
REMARK  129  A    between atoms: _309  and  _310
REMARK  130  A    between atoms: _312  and  _314
REMARK  131  A    between atoms: _314  and  _315
REMARK  132  A    between atoms: _314  and  _317
REMARK  133  A    between atoms: _317  and  _318
REMARK  134  A    between atoms: _324  and  _326
REMARK  135  A    between atoms: _326  and  _327
REMARK  136  A    between atoms: _326  and  _329
REMARK  137  A    between atoms: _329  and  _330
REMARK  138  A    between atoms: _330  and  _331
REMARK  139  A    between atoms: _331  and  _332
REMARK  140  A    between atoms: _341  and  _343
REMARK  141  A    between atoms: _343  and  _344
REMARK  142  A    between atoms: _343  and  _346
REMARK  143  A    between atoms: _349  and  _351
REMARK  144  A    between atoms: _351  and  _352
REMARK  145  A    between atoms: _351  and  _354
REMARK  146  A    between atoms: _354  and  _355
REMARK  147  A    between atoms: _358  and  _360
REMARK  148  A    between atoms: _360  and  _361
REMARK  149  A    between atoms: _360  and  _363
REMARK  150  A    between atoms: _363  and  _364
REMARK  151  A    between atoms: _367  and  _369
REMARK  152  A    between atoms: _369  and  _370
REMARK  153  A    between atoms: _369  and  _372
REMARK  154  A    between atoms: _372  and  _373
REMARK  155  A    between atoms: _373  and  _374
REMARK  156  A    between atoms: _374  and  _375
REMARK  157  A    between atoms: _384  and  _386
REMARK  158  A    between atoms: _386  and  _387
REMARK  159  A    between atoms: _386  and  _389
REMARK  160  A    between atoms: _389  and  _390
REMARK  161  A    between atoms: _393  and  _395
REMARK  162  A    between atoms: _395  and  _396
REMARK  163  A    between atoms: _395  and  _398
REMARK  164  A    between atoms: _398  and  _399
REMARK  165  A    between atoms: _402  and  _404
REMARK  166  A    between atoms: _404  and  _405
REMARK  167  A    between atoms: _404  and  _407
REMARK  168  A    between atoms: _407  and  _408
REMARK  169  A    between atoms: _411  and  _413
REMARK  170  A    between atoms: _413  and  _414
REMARK  171  A    between atoms: _413  and  _416
REMARK  172  A    between atoms: _416  and  _417
REMARK  173  A    between atoms: _422  and  _423
REMARK  174  A    between atoms: _425  and  _427
REMARK  175  A    between atoms: _427  and  _428
REMARK  176  A    between atoms: _427  and  _430
REMARK  177  A    between atoms: _430  and  _431
REMARK  178  A    between atoms: _436  and  _437
REMARK  179  A    between atoms: _439  and  _441
REMARK  180  A    between atoms: _441  and  _442
REMARK  181  A    between atoms: _441  and  _444
REMARK  182  A    between atoms: _444  and  _445
REMARK  183  A    between atoms: _448  and  _450
REMARK  184  A    between atoms: _450  and  _451
REMARK  185  A    between atoms: _450  and  _453
REMARK  186  A    between atoms: _456  and  _458
REMARK  187  A    between atoms: _458  and  _459
REMARK  188  A    between atoms: _458  and  _461
REMARK  189  A    between atoms: _461  and  _462
REMARK  190  A    between atoms: _465  and  _467
REMARK  191  A    between atoms: _467  and  _468
REMARK  192  A    between atoms: _467  and  _470
REMARK  193  A    between atoms: _470  and  _471
REMARK  194  A    between atoms: _473  and  _475
REMARK  195  A    between atoms: _475  and  _476
REMARK  196  A    between atoms: _478  and  _480
REMARK  197  A    between atoms: _480  and  _481
REMARK  198  A    between atoms: _480  and  _483
REMARK  199  A    between atoms: _483  and  _484
REMARK  200  A    between atoms: _489  and  _490
REMARK  201  A    between atoms: _492  and  _494
REMARK  202  A    between atoms: _494  and  _495
REMARK  203  A    between atoms: _494  and  _497
REMARK  204  A    between atoms: _497  and  _498
REMARK  205  A    between atoms: _498  and  _499
REMARK  206  A    between atoms: _504  and  _506
REMARK  207  A    between atoms: _506  and  _507
REMARK  208  A    between atoms: _506  and  _509
REMARK  209  A    between atoms: _509  and  _510
REMARK  210  A    between atoms: _510  and  _511
REMARK  211  A    between atoms: _516  and  _518
REMARK  212  A    between atoms: _518  and  _519
REMARK  213  A    between atoms: _518  and  _521
REMARK  214  A    between atoms: _521  and  _522
REMARK  215  A    between atoms: _527  and  _528
REMARK  216  A    between atoms: _530  and  _532
REMARK  217  A    between atoms: _532  and  _533
REMARK  218  A    between atoms: _532  and  _535
REMARK  219  A    between atoms: _535  and  _536
REMARK  220  A    between atoms: _541  and  _542
REMARK  221  A    between atoms: _544  and  _546
REMARK  222  A    between atoms: _546  and  _547
REMARK  223  A    between atoms: _546  and  _549
REMARK  224  A    between atoms: _549  and  _550
REMARK  225  A    between atoms: _555  and  _556
REMARK  226  A    between atoms: _558  and  _560
REMARK  227  A    between atoms: _560  and  _561
REMARK  228  A    between atoms: _560  and  _563
REMARK  229  A    between atoms: _563  and  _564
REMARK  230  A    between atoms: _567  and  _569
REMARK  231  A    between atoms: _569  and  _570
REMARK  232  A    between atoms: _569  and  _572
REMARK  233  A    between atoms: _572  and  _573
REMARK  234  A    between atoms: _583  and  _585
REMARK  235  A    between atoms: _585  and  _586
REMARK  236  A    between atoms: _589  and  _591
REMARK  237  A    between atoms: _591  and  _592
REMARK  238  A    between atoms: _595  and  _597
REMARK  239  A    between atoms: _597  and  _598
REMARK  240  A    between atoms: _597  and  _600
REMARK  241  A    between atoms: _600  and  _601
REMARK  242  A    between atoms: _604  and  _606
REMARK  243  A    between atoms: _606  and  _607
REMARK  244  A    between atoms: _606  and  _609
REMARK  245  A    between atoms: _609  and  _610
REMARK  246  A    between atoms: _613  and  _615
REMARK  247  A    between atoms: _615  and  _616
REMARK  248  A    between atoms: _615  and  _618
REMARK  249  A    between atoms: _618  and  _619
REMARK  250  A    between atoms: _622  and  _624
REMARK  251  A    between atoms: _624  and  _625
REMARK  252  A    between atoms: _624  and  _627
REMARK  253  A    between atoms: _627  and  _628
REMARK  254  A    between atoms: _628  and  _629
REMARK  255  A    between atoms: _629  and  _630
REMARK  256  A    between atoms: _630  and  _631
REMARK  257  A    between atoms: _635  and  _637
REMARK  258  A    between atoms: _637  and  _638
REMARK  259  A    between atoms: _637  and  _640
REMARK  260  A    between atoms: _640  and  _641
REMARK  261  A    between atoms: _646  and  _648
REMARK  262  A    between atoms: _648  and  _649
REMARK  263  A    between atoms: _648  and  _651
REMARK  264  A    between atoms: _651  and  _652
REMARK  265  A    between atoms: _652  and  _653
REMARK  266  A    between atoms: _653  and  _654
REMARK  267  A    between atoms: _654  and  _655
REMARK  268  A    between atoms: _659  and  _661
REMARK  269  A    between atoms: _661  and  _662
REMARK  270  A    between atoms: _661  and  _664
REMARK  271  A    between atoms: _664  and  _665
REMARK  272  A    between atoms: _675  and  _677
REMARK  273  A    between atoms: _677  and  _678
REMARK  274  A    between atoms: _681  and  _683
REMARK  275  A    between atoms: _683  and  _684
REMARK  276  A    between atoms: _686  and  _688
REMARK  277  A    between atoms: _688  and  _689
REMARK  278  A    between atoms: _688  and  _691
REMARK  279  A    between atoms: _691  and  _692
REMARK  280  A    between atoms: _692  and  _693
REMARK  281  A    between atoms: _696  and  _698
REMARK  282  A    between atoms: _698  and  _699
REMARK  283  A    between atoms: _702  and  _704
REMARK  284  A    between atoms: _704  and  _705
REMARK  285  A    between atoms: _704  and  _707
REMARK  286  A    between atoms: _707  and  _708
REMARK  287  A    between atoms: _708  and  _709
REMARK  288  A    between atoms: _712  and  _714
REMARK  289  A    between atoms: _714  and  _715
REMARK  290  A    between atoms: _714  and  _717
REMARK  291  A    between atoms: _717  and  _718
REMARK  292  A    between atoms: _718  and  _719
REMARK  293  A    between atoms: _719  and  _720
REMARK  294  A    between atoms: _729  and  _731
REMARK  295  A    between atoms: _731  and  _732
REMARK  296  A    between atoms: _731  and  _734
REMARK  297  A    between atoms: _734  and  _735
REMARK  298  A    between atoms: _738  and  _740
REMARK  299  A    between atoms: _740  and  _741
REMARK  300  A    between atoms: _740  and  _743
REMARK  301  A    between atoms: _743  and  _744
REMARK  302  A    between atoms: _744  and  _745
REMARK  303  A    between atoms: _745  and  _746
REMARK  304  A    between atoms: _755  and  _757
REMARK  305  A    between atoms: _757  and  _758
REMARK  306  A    between atoms: _761  and  _763
REMARK  307  A    between atoms: _763  and  _764
REMARK  308  A    between atoms: _763  and  _766
REMARK  309  A    between atoms: _766  and  _767
REMARK  310  A    between atoms: _772  and  _773
REMARK  311  A    between atoms: _775  and  _777
REMARK  312  A    between atoms: _777  and  _778
REMARK  313  A    between atoms: _777  and  _780
REMARK  314  A    between atoms: _780  and  _781
REMARK  315  A    between atoms: _784  and  _786
REMARK  316  A    between atoms: _786  and  _787
REMARK  317  A    between atoms: _786  and  _789
REMARK  318  A    between atoms: _789  and  _790
REMARK  319  A    between atoms: _793  and  _795
REMARK  320  A    between atoms: _795  and  _796
REMARK  321  A    between atoms: _795  and  _798
REMARK  322  A    between atoms: _800  and  _802
REMARK  323  A    between atoms: _802  and  _803
REMARK  324  A    between atoms: _802  and  _805
REMARK  325  A    between atoms: _808  and  _810
REMARK  326  A    between atoms: _810  and  _811
REMARK  327  A    between atoms: _810  and  _813
REMARK  328  A    between atoms: _813  and  _814
REMARK  329  A    between atoms: _814  and  _815
REMARK  330  A    between atoms: _818  and  _820
REMARK  331  A    between atoms: _820  and  _821
REMARK  332  A    between atoms: _820  and  _823
REMARK  333  A    between atoms: _823  and  _824
REMARK  334  A    between atoms: _834  and  _836
REMARK  335  A    between atoms: _836  and  _837
REMARK  336  A    between atoms: _836  and  _839
REMARK  337  A    between atoms: _839  and  _840
REMARK  338  A    between atoms: _843  and  _845
REMARK  339  A    between atoms: _845  and  _846
REMARK  340  A    between atoms: _845  and  _848
REMARK  341  A    between atoms: _848  and  _849
REMARK  342  A    between atoms: _849  and  _850
REMARK  343  A    between atoms: _850  and  _851
REMARK  344  A    between atoms: _860  and  _862
REMARK  345  A    between atoms: _862  and  _863
REMARK  346  A    between atoms: _862  and  _865
REMARK  347  A    between atoms: _865  and  _866
REMARK  348  A    between atoms: _871  and  _872
REMARK  349  A    between atoms: _874  and  _876
REMARK  350  A    between atoms: _876  and  _877
REMARK  351  A    between atoms: _876  and  _879
REMARK  352  A    between atoms: _879  and  _880
REMARK  353  A    between atoms: _880  and  _881
REMARK  354  A    between atoms: _886  and  _888
REMARK  355  A    between atoms: _888  and  _889
REMARK  356  A    between atoms: _888  and  _891
REMARK  357  A    between atoms: _891  and  _892
REMARK  358  A    between atoms: _895  and  _897
REMARK  359  A    between atoms: _897  and  _898
REMARK  360  A    between atoms: _897  and  _900
REMARK  361  A    between atoms: _900  and  _901
REMARK  362  A    between atoms: _903  and  _905
REMARK  363  A    between atoms: _905  and  _906
REMARK  364  A    between atoms: _905  and  _908
REMARK  365  A    between atoms: _908  and  _909
REMARK  366  A    between atoms: _911  and  _913
REMARK  367  A    between atoms: _913  and  _914
REMARK  368  A    between atoms: _913  and  _916
REMARK  369  A    between atoms: _916  and  _917
REMARK  370  A    between atoms: _923  and  _925
REMARK  371  A    between atoms: _925  and  _926
REMARK  372  A    between atoms: _925  and  _928
REMARK  373  A    between atoms: _928  and  _929
REMARK  374  A    between atoms: _929  and  _930
REMARK  375  A    between atoms: _930  and  _931
REMARK  376  A    between atoms: _940  and  _942
REMARK  377  A    between atoms: _942  and  _943
REMARK  378  A    between atoms: _942  and  _945
REMARK  379  A    between atoms: _945  and  _946
REMARK  380  A    between atoms: _946  and  _947
REMARK  381  A    between atoms: _947  and  _948
REMARK  382  A    between atoms: _957  and  _959
REMARK  383  A    between atoms: _959  and  _960
REMARK  384  A    between atoms: _962  and  _964
REMARK  385  A    between atoms: _964  and  _965
REMARK  386  A    between atoms: _964  and  _967
REMARK  387  A    between atoms: _967  and  _968
REMARK  388  A    between atoms: _974  and  _975
REMARK  389  A    between atoms: _980  and  _982
REMARK  390  A    between atoms: _982  and  _983
REMARK  391  A    between atoms: _982  and  _985
REMARK  392  A    between atoms: _985  and  _986
REMARK  393  A    between atoms: _996  and  _998
REMARK  394  A    between atoms: _998  and  _999
REMARK  395  A    between atoms: _998  and  _1001
REMARK  396  A    between atoms: _1001  and  _1002
REMARK  397  A    between atoms: _1002  and  _1003
REMARK  398  A    between atoms: _1003  and  _1004
REMARK  399  A    between atoms: _1013  and  _1015
REMARK  400  A    between atoms: _1015  and  _1016
REMARK  401  A    between atoms: _1015  and  _1018
REMARK  402  A    between atoms: _1018  and  _1019
REMARK  403  A    between atoms: _1021  and  _1023
REMARK  404  A    between atoms: _1023  and  _1024
REMARK  405  A    between atoms: _1027  and  _1029
REMARK  406  A    between atoms: _1029  and  _1030
REMARK  407  A    between atoms: _1029  and  _1032
REMARK  408  A    between atoms: _1032  and  _1033
REMARK  409  A    between atoms: _1036  and  _1038
REMARK  410  A    between atoms: _1038  and  _1039
REMARK  411  A    between atoms: _1038  and  _1041
REMARK  412  A    between atoms: _1041  and  _1042
REMARK  413  A    between atoms: _1042  and  _1043
REMARK  414  A    between atoms: _1043  and  _1044
REMARK  415  A    between atoms: _1053  and  _1055
REMARK  416  A    between atoms: _1055  and  _1056
REMARK  417  A    between atoms: _1055  and  _1058
REMARK  418  A    between atoms: _1061  and  _1063
REMARK  419  A    between atoms: _1063  and  _1064
REMARK  420  A    between atoms: _1066  and  _1068
REMARK  421  A    between atoms: _1068  and  _1069
REMARK  422  A    between atoms: _1068  and  _1071
REMARK  423  A    between atoms: _1071  and  _1072
REMARK                            x       y       z     vdW  Elec       q    Type
REMARK                         _______ _______ _______ _____ _____    ______ ____
ROOT
ATOM      1  CA  GLU A   1      37.565  41.418  43.788  0.00  0.00    +0.134 C 
ENDROOT
BRANCH   1   2
ATOM      2  N   GLU A   1      38.096  42.032  42.576  0.00  0.00    -0.239 NA
ATOM      3  H   GLU A   1      37.604  41.895  41.670  0.00  0.00    +0.142 HD
ENDBRANCH   1   2
BRANCH   1   4
ATOM      4  C   GLU A   1      38.477  40.206  44.053  0.00  0.00    +0.224 C 
ATOM      5  O   GLU A   1      38.752  39.439  43.137  0.00  0.00    -0.287 OA
ENDBRANCH   1   4
BRANCH   1   6
ATOM      6  CB  GLU A   1      36.127  40.944  43.694  0.00  0.00    +0.037 C 
BRANCH   6   7
ATOM      7  CG  GLU A   1      35.038  41.975  43.782  0.00  0.00    +0.116 C 
BRANCH   7   8
ATOM      8  CD  GLU A   1      35.182  42.992  44.884  0.00  0.00    +0.365 C 
ATOM      9  OE2 GLU A   1      36.073  42.854  45.757  0.00  0.00    -0.246 OA
ATOM     10  OE1 GLU A   1      34.373  43.955  44.890  0.00  0.00    -0.246 OA
ENDBRANCH   7   8
ENDBRANCH   6   7
ENDBRANCH   1   6
TORSDOF 5
REMARK  Name = ../refined-set-2016/1fo0/1fo0_pocket.pdb
REMARK  423 active torsions:
REMARK  status: ('A' for Active; 'I' for Inactive)
REMARK    1  A    between atoms: _1  and  _3
REMARK    2  A    between atoms: _3  and  _4
REMARK    3  A    between atoms: _3  and  _6
REMARK    4  A    between atoms: _6  and  _7
REMARK    5  A    between atoms: _10  and  _12
REMARK    6  A    between atoms: _12  and  _13
REMARK    7  A    between atoms: _12  and  _15
REMARK    8  A    between atoms: _15  and  _16
REMARK    9  A    between atoms: _16  and  _17
REMARK   10  A    between atoms: _17  and  _18
REMARK   11  A    between atoms: _27  and  _29
REMARK   12  A    between atoms: _29  and  _30
REMARK   13  A    between atoms: _29  and  _32
REMARK   14  A    between atoms: _32  and  _33
REMARK   15  A    between atoms: _38  and  _39
REMARK   16  A    between atoms: _41  and  _43
REMARK   17  A    between atoms: _43  and  _44
REMARK   18  A    between atoms: _43  and  _46
REMARK   19  A    between atoms: _46  and  _47
REMARK   20  A    between atoms: _53  and  _55
REMARK   21  A    between atoms: _55  and  _56
REMARK   22  A    between atoms: _55  and  _58
REMARK   23  A    between atoms: _61  and  _63
REMARK   24  A    between atoms: _63  and  _64
REMARK   25  A    between atoms: _63  and  _66
REMARK   26  A    between atoms: _66  and  _67
REMARK   27  A    between atoms: _70  and  _72
REMARK   28  A    between atoms: _72  and  _73
REMARK   29  A    between atoms: _72  and  _75
REMARK   30  A    between atoms: _75  and  _76
REMARK   31  A    between atoms: _81  and  _82
REMARK   32  A    between atoms: _84  and  _86
REMARK   33  A    between atoms: _86  and  _87
REMARK   34  A    between atoms: _86  and  _89
REMARK   35  A    between atoms: _89  and  _90
REMARK   36  A    between atoms: _90  and  _91
REMARK   37  A    between atoms: _93  and  _95
REMARK   38  A    between atoms: _95  and  _96
REMARK   39  A    between atoms: _95  and  _98
REMARK   40  A    between atoms: _98  and  _99
REMARK   41  A    between atoms: _99  and  _100
REMARK   42  A    between atoms: _103  and  _105
REMARK   43  A    between atoms: _105  and  _106
REMARK   44  A    between atoms: _105  and  _108
REMARK   45  A    between atoms: _111  and  _113
REMARK   46  A    between atoms: _113  and  _114
REMARK   47  A    between atoms: _116  and  _118
REMARK   48  A    between atoms: _118  and  _119
REMARK   49  A    between atoms: _118  and  _121
REMARK   50  A    between atoms: _121  and  _122
REMARK   51  A    between atoms: _128  and  _130
REMARK   52  A    between atoms: _130  and  _131
REMARK   53  A    between atoms: _130  and  _133
REMARK   54  A    between atoms: _136  and  _138
REMARK   55  A    between atoms: _138  and  _139
REMARK   56  A    between atoms: _138  and  _141
REMARK   57  A    between atoms: _141  and  _142
REMARK   58  A    between atoms: _148  and  _150
REMARK   59  A    between atoms: _150  and  _151
REMARK   60  A    between atoms: _150  and  _153
REMARK   61  A    between atoms: _153  and  _154
REMARK   62  A    between atoms: _159  and  _160
REMARK   63  A    between atoms: _162  and  _164
REMARK   64  A    between atoms: _164  and  _165
REMARK   65  A    between atoms: _164  and  _167
REMARK   66  A    between atoms: _167  and  _168
REMARK   67  A    between atoms: _168  and  _169
REMARK   68  A    between atoms: _171  and  _173
REMARK   69  A    between atoms: _173  and  _174
REMARK   70  A    between atoms: _173  and  _176
REMARK   71  A    between atoms: _176  and  _177
REMARK   72  A    between atoms: _177  and  _178
REMARK   73  A    between atoms: _181  and  _183
REMARK   74  A    between atoms: _183  and  _184
REMARK   75  A    between atoms: _183  and  _186
REMARK   76  A    between atoms: _186  and  _187
REMARK   77  A    between atoms: _192  and  _193
REMARK   78  A    between atoms: _195  and  _197
REMARK   79  A    between atoms: _197  and  _198
REMARK   80  A    between atoms: _197  and  _200
REMARK   81  A    between atoms: _200  and  _201
REMARK   82  A    between atoms: _201  and  _202
REMARK   83  A    between atoms: _202  and  _203
REMARK   84  A    between atoms: _212  and  _214
REMARK   85  A    between atoms: _214  and  _215
REMARK   86  A    between atoms: _214  and  _217
REMARK   87  A    between atoms: _217  and  _218
REMARK   88  A    between atoms: _218  and  _219
REMARK   89  A    between atoms: _222  and  _224
REMARK   90  A    between atoms: _224  and  _225
REMARK   91  A    between atoms: _224  and  _227
REMARK   92  A    between atoms: _227  and  _228
REMARK   93  A    between atoms: _228  and  _229
REMARK   94  A    between atoms: _234  and  _236
REMARK   95  A    between atoms: _236  and  _237
REMARK   96  A    between atoms: _236  and  _239
REMARK   97  A    between atoms: _239  and  _240
REMARK   98  A    between atoms: _240  and  _241
REMARK   99  A    between atoms: _241  and  _242
REMARK  100  A    between atoms: _242  and  _243
REMARK  101  A    between atoms: _247  and  _249
REMARK  102  A    between atoms: _249  and  _250
REMARK  103  A    between atoms: _253  and  _255
REMARK  104  A    between atoms: _255  and  _256
REMARK  105  A    between atoms: _255  and  _258
REMARK  106  A    between atoms: _258  and  _259
REMARK  107  A    between atoms: _259  and  _260
REMARK  108  A    between atoms: _260  and  _261
REMARK  109  A    between atoms: _261  and  _262
REMARK  110  A    between atoms: _266  and  _268
REMARK  111  A    between atoms: _268  and  _269
REMARK  112  A    between atoms: _271  and  _273
REMARK  113  A    between atoms: _273  and  _274
REMARK  114  A    between atoms: _273  and  _276
REMARK  115  A    between atoms: _276  and  _277
REMARK  116  A    between atoms: _282  and  _284
REMARK  117  A    between atoms: _284  and  _285
REMARK  118  A    between atoms: _284  and  _287
REMARK  119  A    between atoms: _287  and  _288
REMARK  120  A    between atoms: _288  and  _289
REMARK  121  A    between atoms: _292  and  _294
REMARK  122  A    between atoms: _294  and  _295
REMARK  123  A    between atoms: _294  and  _297
REMARK  124  A    between atoms: _297  and  _298
REMARK  125  A    between atoms: _298  and  _299
REMARK  126  A    between atoms: _304  and  _306
REMARK  127  A    between atoms: _306  and  _307
REMARK  128  A    between atoms: _306  and  _309
REMARK  129  A    between atoms: _309  and  _310
REMARK  130  A    between atoms: _312  and  _314
REMARK  131  A    between atoms: _314  and  _315
REMARK  132  A    between atoms: _314  and  _317
REMARK  133  A    between atoms: _317  and  _318
REMARK  134  A    between atoms: _324  and  _326
REMARK  135  A    between atoms: _326  and  _327
REMARK  136  A    between atoms: _326  and  _329
REMARK  137  A    between atoms: _329  and  _330
REMARK  138  A    between atoms: _330  and  _331
REMARK  139  A    between atoms: _331  and  _332
REMARK  140  A    between atoms: _341  and  _343
REMARK  141  A    between atoms: _343  and  _344
REMARK  142  A    between atoms: _343  and  _346
REMARK  143  A    between atoms: _349  and  _351
REMARK  144  A    between atoms: _351  and  _352
REMARK  145  A    between atoms: _351  and  _354
REMARK  146  A    between atoms: _354  and  _355
REMARK  147  A    between atoms: _358  and  _360
REMARK  148  A    between atoms: _360  and  _361
REMARK  149  A    between atoms: _360  and  _363
REMARK  150  A    between atoms: _363  and  _364
REMARK  151  A    between atoms: _367  and  _369
REMARK  152  A    between atoms: _369  and  _370
REMARK  153  A    between atoms: _369  and  _372
REMARK  154  A    between atoms: _372  and  _373
REMARK  155  A    between atoms: _373  and  _374
REMARK  156  A    between atoms: _374  and  _375
REMARK  157  A    between atoms: _384  and  _386
REMARK  158  A    between atoms: _386  and  _387
REMARK  159  A    between atoms: _386  and  _389
REMARK  160  A    between atoms: _389  and  _390
REMARK  161  A    between atoms: _393  and  _395
REMARK  162  A    between atoms: _395  and  _396
REMARK  163  A    between atoms: _395  and  _398
REMARK  164  A    between atoms: _398  and  _399
REMARK  165  A    between atoms: _402  and  _404
REMARK  166  A    between atoms: _404  and  _405
REMARK  167  A    between atoms: _404  and  _407
REMARK  168  A    between atoms: _407  and  _408
REMARK  169  A    between atoms: _411  and  _413
REMARK  170  A    between atoms: _413  and  _414
REMARK  171  A    between atoms: _413  and  _416
REMARK  172  A    between atoms: _416  and  _417
REMARK  173  A    between atoms: _422  and  _423
REMARK  174  A    between atoms: _425  and  _427
REMARK  175  A    between atoms: _427  and  _428
REMARK  176  A    between atoms: _427  and  _430
REMARK  177  A    between atoms: _430  and  _431
REMARK  178  A    between atoms: _436  and  _437
REMARK  179  A    between atoms: _439  and  _441
REMARK  180  A    between atoms: _441  and  _442
REMARK  181  A    between atoms: _441  and  _444
REMARK  182  A    between atoms: _444  and  _445
REMARK  183  A    between atoms: _448  and  _450
REMARK  184  A    between atoms: _450  and  _451
REMARK  185  A    between atoms: _450  and  _453
REMARK  186  A    between atoms: _456  and  _458
REMARK  187  A    between atoms: _458  and  _459
REMARK  188  A    between atoms: _458  and  _461
REMARK  189  A    between atoms: _461  and  _462
REMARK  190  A    between atoms: _465  and  _467
REMARK  191  A    between atoms: _467  and  _468
REMARK  192  A    between atoms: _467  and  _470
REMARK  193  A    between atoms: _470  and  _471
REMARK  194  A    between atoms: _473  and  _475
REMARK  195  A    between atoms: _475  and  _476
REMARK  196  A    between atoms: _478  and  _480
REMARK  197  A    between atoms: _480  and  _481
REMARK  198  A    between atoms: _480  and  _483
REMARK  199  A    between atoms: _483  and  _484
REMARK  200  A    between atoms: _489  and  _490
REMARK  201  A    between atoms: _492  and  _494
REMARK  202  A    between atoms: _494  and  _495
REMARK  203  A    between atoms: _494  and  _497
REMARK  204  A    between atoms: _497  and  _498
REMARK  205  A    between atoms: _498  and  _499
REMARK  206  A    between atoms: _504  and  _506
REMARK  207  A    between atoms: _506  and  _507
REMARK  208  A    between atoms: _506  and  _509
REMARK  209  A    between atoms: _509  and  _510
REMARK  210  A    between atoms: _510  and  _511
REMARK  211  A    between atoms: _516  and  _518
REMARK  212  A    between atoms: _518  and  _519
REMARK  213  A    between atoms: _518  and  _521
REMARK  214  A    between atoms: _521  and  _522
REMARK  215  A    between atoms: _527  and  _528
REMARK  216  A    between atoms: _530  and  _532
REMARK  217  A    between atoms: _532  and  _533
REMARK  218  A    between atoms: _532  and  _535
REMARK  219  A    between atoms: _535  and  _536
REMARK  220  A    between atoms: _541  and  _542
REMARK  221  A    between atoms: _544  and  _546
REMARK  222  A    between atoms: _546  and  _547
REMARK  223  A    between atoms: _546  and  _549
REMARK  224  A    between atoms: _549  and  _550
REMARK  225  A    between atoms: _555  and  _556
REMARK  226  A    between atoms: _558  and  _560
REMARK  227  A    between atoms: _560  and  _561
REMARK  228  A    between atoms: _560  and  _563
REMARK  229  A    between atoms: _563  and  _564
REMARK  230  A    between atoms: _567  and  _569
REMARK  231  A    between atoms: _569  and  _570
REMARK  232  A    between atoms: _569  and  _572
REMARK  233  A    between atoms: _572  and  _573
REMARK  234  A    between atoms: _583  and  _585
REMARK  235  A    between atoms: _585  and  _586
REMARK  236  A    between atoms: _589  and  _591
REMARK  237  A    between atoms: _591  and  _592
REMARK  238  A    between atoms: _595  and  _597
REMARK  239  A    between atoms: _597  and  _598
REMARK  240  A    between atoms: _597  and  _600
REMARK  241  A    between atoms: _600  and  _601
REMARK  242  A    between atoms: _604  and  _606
REMARK  243  A    between atoms: _606  and  _607
REMARK  244  A    between atoms: _606  and  _609
REMARK  245  A    between atoms: _609  and  _610
REMARK  246  A    between atoms: _613  and  _615
REMARK  247  A    between atoms: _615  and  _616
REMARK  248  A    between atoms: _615  and  _618
REMARK  249  A    between atoms: _618  and  _619
REMARK  250  A    between atoms: _622  and  _624
REMARK  251  A    between atoms: _624  and  _625
REMARK  252  A    between atoms: _624  and  _627
REMARK  253  A    between atoms: _627  and  _628
REMARK  254  A    between atoms: _628  and  _629
REMARK  255  A    between atoms: _629  and  _630
REMARK  256  A    between atoms: _630  and  _631
REMARK  257  A    between atoms: _635  and  _637
REMARK  258  A    between atoms: _637  and  _638
REMARK  259  A    between atoms: _637  and  _640
REMARK  260  A    between atoms: _640  and  _641
REMARK  261  A    between atoms: _646  and  _648
REMARK  262  A    between atoms: _648  and  _649
REMARK  263  A    between atoms: _648  and  _651
REMARK  264  A    between atoms: _651  and  _652
REMARK  265  A    between atoms: _652  and  _653
REMARK  266  A    between atoms: _653  and  _654
REMARK  267  A    between atoms: _654  and  _655
REMARK  268  A    between atoms: _659  and  _661
REMARK  269  A    between atoms: _661  and  _662
REMARK  270  A    between atoms: _661  and  _664
REMARK  271  A    between atoms: _664  and  _665
REMARK  272  A    between atoms: _675  and  _677
REMARK  273  A    between atoms: _677  and  _678
REMARK  274  A    between atoms: _681  and  _683
REMARK  275  A    between atoms: _683  and  _684
REMARK  276  A    between atoms: _686  and  _688
REMARK  277  A    between atoms: _688  and  _689
REMARK  278  A    between atoms: _688  and  _691
REMARK  279  A    between atoms: _691  and  _692
REMARK  280  A    between atoms: _692  and  _693
REMARK  281  A    between atoms: _696  and  _698
REMARK  282  A    between atoms: _698  and  _699
REMARK  283  A    between atoms: _702  and  _704
REMARK  284  A    between atoms: _704  and  _705
REMARK  285  A    between atoms: _704  and  _707
REMARK  286  A    between atoms: _707  and  _708
REMARK  287  A    between atoms: _708  and  _709
REMARK  288  A    between atoms: _712  and  _714
REMARK  289  A    between atoms: _714  and  _715
REMARK  290  A    between atoms: _714  and  _717
REMARK  291  A    between atoms: _717  and  _718
REMARK  292  A    between atoms: _718  and  _719
REMARK  293  A    between atoms: _719  and  _720
REMARK  294  A    between atoms: _729  and  _731
REMARK  295  A    between atoms: _731  and  _732
REMARK  296  A    between atoms: _731  and  _734
REMARK  297  A    between atoms: _734  and  _735
REMARK  298  A    between atoms: _738  and  _740
REMARK  299  A    between atoms: _740  and  _741
REMARK  300  A    between atoms: _740  and  _743
REMARK  301  A    between atoms: _743  and  _744
REMARK  302  A    between atoms: _744  and  _745
REMARK  303  A    between atoms: _745  and  _746
REMARK  304  A    between atoms: _755  and  _757
REMARK  305  A    between atoms: _757  and  _758
REMARK  306  A    between atoms: _761  and  _763
REMARK  307  A    between atoms: _763  and  _764
REMARK  308  A    between atoms: _763  and  _766
REMARK  309  A    between atoms: _766  and  _767
REMARK  310  A    between atoms: _772  and  _773
REMARK  311  A    between atoms: _775  and  _777
REMARK  312  A    between atoms: _777  and  _778
REMARK  313  A    between atoms: _777  and  _780
REMARK  314  A    between atoms: _780  and  _781
REMARK  315  A    between atoms: _784  and  _786
REMARK  316  A    between atoms: _786  and  _787
REMARK  317  A    between atoms: _786  and  _789
REMARK  318  A    between atoms: _789  and  _790
REMARK  319  A    between atoms: _793  and  _795
REMARK  320  A    between atoms: _795  and  _796
REMARK  321  A    between atoms: _795  and  _798
REMARK  322  A    between atoms: _800  and  _802
REMARK  323  A    between atoms: _802  and  _803
REMARK  324  A    between atoms: _802  and  _805
REMARK  325  A    between atoms: _808  and  _810
REMARK  326  A    between atoms: _810  and  _811
REMARK  327  A    between atoms: _810  and  _813
REMARK  328  A    between atoms: _813  and  _814
REMARK  329  A    between atoms: _814  and  _815
REMARK  330  A    between atoms: _818  and  _820
REMARK  331  A    between atoms: _820  and  _821
REMARK  332  A    between atoms: _820  and  _823
REMARK  333  A    between atoms: _823  and  _824
REMARK  334  A    between atoms: _834  and  _836
REMARK  335  A    between atoms: _836  and  _837
REMARK  336  A    between atoms: _836  and  _839
REMARK  337  A    between atoms: _839  and  _840
REMARK  338  A    between atoms: _843  and  _845
REMARK  339  A    between atoms: _845  and  _846
REMARK  340  A    between atoms: _845  and  _848
REMARK  341  A    between atoms: _848  and  _849
REMARK  342  A    between atoms: _849  and  _850
REMARK  343  A    between atoms: _850  and  _851
REMARK  344  A    between atoms: _860  and  _862
REMARK  345  A    between atoms: _862  and  _863
REMARK  346  A    between atoms: _862  and  _865
REMARK  347  A    between atoms: _865  and  _866
REMARK  348  A    between atoms: _871  and  _872
REMARK  349  A    between atoms: _874  and  _876
REMARK  350  A    between atoms: _876  and  _877
REMARK  351  A    between atoms: _876  and  _879
REMARK  352  A    between atoms: _879  and  _880
REMARK  353  A    between atoms: _880  and  _881
REMARK  354  A    between atoms: _886  and  _888
REMARK  355  A    between atoms: _888  and  _889
REMARK  356  A    between atoms: _888  and  _891
REMARK  357  A    between atoms: _891  and  _892
REMARK  358  A    between atoms: _895  and  _897
REMARK  359  A    between atoms: _897  and  _898
REMARK  360  A    between atoms: _897  and  _900
REMARK  361  A    between atoms: _900  and  _901
REMARK  362  A    between atoms: _903  and  _905
REMARK  363  A    between atoms: _905  and  _906
REMARK  364  A    between atoms: _905  and  _908
REMARK  365  A    between atoms: _908  and  _909
REMARK  366  A    between atoms: _911  and  _913
REMARK  367  A    between atoms: _913  and  _914
REMARK  368  A    between atoms: _913  and  _916
REMARK  369  A    between atoms: _916  and  _917
REMARK  370  A    between atoms: _923  and  _925
REMARK  371  A    between atoms: _925  and  _926
REMARK  372  A    between atoms: _925  and  _928
REMARK  373  A    between atoms: _928  and  _929
REMARK  374  A    between atoms: _929  and  _930
REMARK  375  A    between atoms: _930  and  _931
REMARK  376  A    between atoms: _940  and  _942
REMARK  377  A    between atoms: _942  and  _943
REMARK  378  A    between atoms: _942  and  _945
REMARK  379  A    between atoms: _945  and  _946
REMARK  380  A    between atoms: _946  and  _947
REMARK  381  A    between atoms: _947  and  _948
REMARK  382  A    between atoms: _957  and  _959
REMARK  383  A    between atoms: _959  and  _960
REMARK  384  A    between atoms: _962  and  _964
REMARK  385  A    between atoms: _964  and  _965
REMARK  386  A    between atoms: _964  and  _967
REMARK  387  A    between atoms: _967  and  _968
REMARK  388  A    between atoms: _974  and  _975
REMARK  389  A    between atoms: _980  and  _982
REMARK  390  A    between atoms: _982  and  _983
REMARK  391  A    between atoms: _982  and  _985
REMARK  392  A    between atoms: _985  and  _986
REMARK  393  A    between atoms: _996  and  _998
REMARK  394  A    between atoms: _998  and  _999
REMARK  395  A    between atoms: _998  and  _1001
REMARK  396  A    between atoms: _1001  and  _1002
REMARK  397  A    between atoms: _1002  and  _1003
REMARK  398  A    between atoms: _1003  and  _1004
REMARK  399  A    between atoms: _1013  and  _1015
REMARK  400  A    between atoms: _1015  and  _1016
REMARK  401  A    between atoms: _1015  and  _1018
REMARK  402  A    between atoms: _1018  and  _1019
REMARK  403  A    between atoms: _1021  and  _1023
REMARK  404  A    between atoms: _1023  and  _1024
REMARK  405  A    between atoms: _1027  and  _1029
REMARK  406  A    between atoms: _1029  and  _1030
REMARK  407  A    between atoms: _1029  and  _1032
REMARK  408  A    between atoms: _1032  and  _1033
REMARK  409  A    between atoms: _1036  and  _1038
REMARK  410  A    between atoms: _1038  and  _1039
REMARK  411  A    between atoms: _1038  and  _1041
REMARK  412  A    between atoms: _1041  and  _1042
REMARK  413  A    between atoms: _1042  and  _1043
REMARK  414  A    between atoms: _1043  and  _1044
REMARK  415  A    between atoms: _1053  and  _1055
REMARK  416  A    between atoms: _1055  and  _1056
REMARK  417  A    between atoms: _1055  and  _1058
REMARK  418  A    between atoms: _1061  and  _1063
REMARK  419  A    between atoms: _1063  and  _1064
REMARK  420  A    between atoms: _1066  and  _1068
REMARK  421  A    between atoms: _1068  and  _1069
REMARK  422  A    between atoms: _1068  and  _1071
REMARK  423  A    between atoms: _1071  and  _1072
REMARK                            x       y       z     vdW  Elec       q    Type
REMARK                         _______ _______ _______ _____ _____    ______ ____
ROOT
ATOM      1  CG  TYR A   1      33.629  39.203  45.811  0.00  0.00    -0.020 A 
ATOM      2  CD2 TYR A   1      32.845  40.239  46.270  0.00  0.00    -0.001 A 
ATOM      3  CE2 TYR A   1      31.698  40.599  45.565  0.00  0.00    +0.036 A 
ATOM      4  CZ  TYR A   1      31.326  39.920  44.430  0.00  0.00    +0.134 A 
ATOM      5  CE1 TYR A   1      32.091  38.877  43.954  0.00  0.00    +0.036 A 
ATOM      6  CD1 TYR A   1      33.236  38.547  44.642  0.00  0.00    -0.001 A 
ENDROOT
BRANCH   4   7
ATOM      7  OH  TYR A   1      30.192  40.299  43.752  0.00  0.00    -0.506 OA
ATOM      8  HH  TYR A   1      29.764  41.056  44.225  0.00  0.00    +0.292 HD
ENDBRANCH   4   7
BRANCH   1   9
ATOM      9  CB  TYR A   1      34.878  38.761  46.548  0.00  0.00    +0.051 C 
BRANCH   9  10
ATOM     10  CA  TYR A   1      34.651  37.531  47.445  0.00  0.00    +0.137 C 
BRANCH  10  11
ATOM     11  N   TYR A   1      35.891  37.240  48.137  0.00  0.00    -0.239 NA
ATOM     12  H   TYR A   1      36.687  37.894  47.996  0.00  0.00    +0.142 HD
ENDBRANCH  10  11
BRANCH  10  13
ATOM     13  C   TYR A   1      34.142  36.335  46.665  0.00  0.00    +0.224 C 
ATOM     14  O   TYR A   1      32.995  35.871  46.756  0.00  0.00    -0.287 OA
ENDBRANCH  10  13
ENDBRANCH   9  10
ENDBRANCH   1   9
TORSDOF 5
REMARK  Name = ../refined-set-2016/1fo0/1fo0_pocket.pdb
REMARK  423 active torsions:
REMARK  status: ('A' for Active; 'I' for Inactive)
REMARK    1  A    between atoms: _1  and  _3
REMARK    2  A    between atoms: _3  and  _4
REMARK    3  A    between atoms: _3  and  _6
REMARK    4  A    between atoms: _6  and  _7
REMARK    5  A    between atoms: _10  and  _12
REMARK    6  A    between atoms: _12  and  _13
REMARK    7  A    between atoms: _12  and  _15
REMARK    8  A    between atoms: _15  and  _16
REMARK    9  A    between atoms: _16  and  _17
REMARK   10  A    between atoms: _17  and  _18
REMARK   11  A    between atoms: _27  and  _29
REMARK   12  A    between atoms: _29  and  _30
REMARK   13  A    between atoms: _29  and  _32
REMARK   14  A    between atoms: _32  and  _33
REMARK   15  A    between atoms: _38  and  _39
REMARK   16  A    between atoms: _41  and  _43
REMARK   17  A    between atoms: _43  and  _44
REMARK   18  A    between atoms: _43  and  _46
REMARK   19  A    between atoms: _46  and  _47
REMARK   20  A    between atoms: _53  and  _55
REMARK   21  A    between atoms: _55  and  _56
REMARK   22  A    between atoms: _55  and  _58
REMARK   23  A    between atoms: _61  and  _63
REMARK   24  A    between atoms: _63  and  _64
REMARK   25  A    between atoms: _63  and  _66
REMARK   26  A    between atoms: _66  and  _67
REMARK   27  A    between atoms: _70  and  _72
REMARK   28  A    between atoms: _72  and  _73
REMARK   29  A    between atoms: _72  and  _75
REMARK   30  A    between atoms: _75  and  _76
REMARK   31  A    between atoms: _81  and  _82
REMARK   32  A    between atoms: _84  and  _86
REMARK   33  A    between atoms: _86  and  _87
REMARK   34  A    between atoms: _86  and  _89
REMARK   35  A    between atoms: _89  and  _90
REMARK   36  A    between atoms: _90  and  _91
REMARK   37  A    between atoms: _93  and  _95
REMARK   38  A    between atoms: _95  and  _96
REMARK   39  A    between atoms: _95  and  _98
REMARK   40  A    between atoms: _98  and  _99
REMARK   41  A    between atoms: _99  and  _100
REMARK   42  A    between atoms: _103  and  _105
REMARK   43  A    between atoms: _105  and  _106
REMARK   44  A    between atoms: _105  and  _108
REMARK   45  A    between atoms: _111  and  _113
REMARK   46  A    between atoms: _113  and  _114
REMARK   47  A    between atoms: _116  and  _118
REMARK   48  A    between atoms: _118  and  _119
REMARK   49  A    between atoms: _118  and  _121
REMARK   50  A    between atoms: _121  and  _122
REMARK   51  A    between atoms: _128  and  _130
REMARK   52  A    between atoms: _130  and  _131
REMARK   53  A    between atoms: _130  and  _133
REMARK   54  A    between atoms: _136  and  _138
REMARK   55  A    between atoms: _138  and  _139
REMARK   56  A    between atoms: _138  and  _141
REMARK   57  A    between atoms: _141  and  _142
REMARK   58  A    between atoms: _148  and  _150
REMARK   59  A    between atoms: _150  and  _151
REMARK   60  A    between atoms: _150  and  _153
REMARK   61  A    between atoms: _153  and  _154
REMARK   62  A    between atoms: _159  and  _160
REMARK   63  A    between atoms: _162  and  _164
REMARK   64  A    between atoms: _164  and  _165
REMARK   65  A    between atoms: _164  and  _167
REMARK   66  A    between atoms: _167  and  _168
REMARK   67  A    between atoms: _168  and  _169
REMARK   68  A    between atoms: _171  and  _173
REMARK   69  A    between atoms: _173  and  _174
REMARK   70  A    between atoms: _173  and  _176
REMARK   71  A    between atoms: _176  and  _177
REMARK   72  A    between atoms: _177  and  _178
REMARK   73  A    between atoms: _181  and  _183
REMARK   74  A    between atoms: _183  and  _184
REMARK   75  A    between atoms: _183  and  _186
REMARK   76  A    between atoms: _186  and  _187
REMARK   77  A    between atoms: _192  and  _193
REMARK   78  A    between atoms: _195  and  _197
REMARK   79  A    between atoms: _197  and  _198
REMARK   80  A    between atoms: _197  and  _200
REMARK   81  A    between atoms: _200  and  _201
REMARK   82  A    between atoms: _201  and  _202
REMARK   83  A    between atoms: _202  and  _203
REMARK   84  A    between atoms: _212  and  _214
REMARK   85  A    between atoms: _214  and  _215
REMARK   86  A    between atoms: _214  and  _217
REMARK   87  A    between atoms: _217  and  _218
REMARK   88  A    between atoms: _218  and  _219
REMARK   89  A    between atoms: _222  and  _224
REMARK   90  A    between atoms: _224  and  _225
REMARK   91  A    between atoms: _224  and  _227
REMARK   92  A    between atoms: _227  and  _228
REMARK   93  A    between atoms: _228  and  _229
REMARK   94  A    between atoms: _234  and  _236
REMARK   95  A    between atoms: _236  and  _237
REMARK   96  A    between atoms: _236  and  _239
REMARK   97  A    between atoms: _239  and  _240
REMARK   98  A    between atoms: _240  and  _241
REMARK   99  A    between atoms: _241  and  _242
REMARK  100  A    between atoms: _242  and  _243
REMARK  101  A    between atoms: _247  and  _249
REMARK  102  A    between atoms: _249  and  _250
REMARK  103  A    between atoms: _253  and  _255
REMARK  104  A    between atoms: _255  and  _256
REMARK  105  A    between atoms: _255  and  _258
REMARK  106  A    between atoms: _258  and  _259
REMARK  107  A    between atoms: _259  and  _260
REMARK  108  A    between atoms: _260  and  _261
REMARK  109  A    between atoms: _261  and  _262
REMARK  110  A    between atoms: _266  and  _268
REMARK  111  A    between atoms: _268  and  _269
REMARK  112  A    between atoms: _271  and  _273
REMARK  113  A    between atoms: _273  and  _274
REMARK  114  A    between atoms: _273  and  _276
REMARK  115  A    between atoms: _276  and  _277
REMARK  116  A    between atoms: _282  and  _284
REMARK  117  A    between atoms: _284  and  _285
REMARK  118  A    between atoms: _284  and  _287
REMARK  119  A    between atoms: _287  and  _288
REMARK  120  A    between atoms: _288  and  _289
REMARK  121  A    between atoms: _292  and  _294
REMARK  122  A    between atoms: _294  and  _295
REMARK  123  A    between atoms: _294  and  _297
REMARK  124  A    between atoms: _297  and  _298
REMARK  125  A    between atoms: _298  and  _299
REMARK  126  A    between atoms: _304  and  _306
REMARK  127  A    between atoms: _306  and  _307
REMARK  128  A    between atoms: _306  and  _309
REMARK  129  A    between atoms: _309  and  _310
REMARK  130  A    between atoms: _312  and  _314
REMARK  131  A    between atoms: _314  and  _315
REMARK  132  A    between atoms: _314  and  _317
REMARK  133  A    between atoms: _317  and  _318
REMARK  134  A    between atoms: _324  and  _326
REMARK  135  A    between atoms: _326  and  _327
REMARK  136  A    between atoms: _326  and  _329
REMARK  137  A    between atoms: _329  and  _330
REMARK  138  A    between atoms: _330  and  _331
REMARK  139  A    between atoms: _331  and  _332
REMARK  140  A    between atoms: _341  and  _343
REMARK  141  A    between atoms: _343  and  _344
REMARK  142  A    between atoms: _343  and  _346
REMARK  143  A    between atoms: _349  and  _351
REMARK  144  A    between atoms: _351  and  _352
REMARK  145  A    between atoms: _351  and  _354
REMARK  146  A    between atoms: _354  and  _355
REMARK  147  A    between atoms: _358  and  _360
REMARK  148  A    between atoms: _360  and  _361
REMARK  149  A    between atoms: _360  and  _363
REMARK  150  A    between atoms: _363  and  _364
REMARK  151  A    between atoms: _367  and  _369
REMARK  152  A    between atoms: _369  and  _370
REMARK  153  A    between atoms: _369  and  _372
REMARK  154  A    between atoms: _372  and  _373
REMARK  155  A    between atoms: _373  and  _374
REMARK  156  A    between atoms: _374  and  _375
REMARK  157  A    between atoms: _384  and  _386
REMARK  158  A    between atoms: _386  and  _387
REMARK  159  A    between atoms: _386  and  _389
REMARK  160  A    between atoms: _389  and  _390
REMARK  161  A    between atoms: _393  and  _395
REMARK  162  A    between atoms: _395  and  _396
REMARK  163  A    between atoms: _395  and  _398
REMARK  164  A    between atoms: _398  and  _399
REMARK  165  A    between atoms: _402  and  _404
REMARK  166  A    between atoms: _404  and  _405
REMARK  167  A    between atoms: _404  and  _407
REMARK  168  A    between atoms: _407  and  _408
REMARK  169  A    between atoms: _411  and  _413
REMARK  170  A    between atoms: _413  and  _414
REMARK  171  A    between atoms: _413  and  _416
REMARK  172  A    between atoms: _416  and  _417
REMARK  173  A    between atoms: _422  and  _423
REMARK  174  A    between atoms: _425  and  _427
REMARK  175  A    between atoms: _427  and  _428
REMARK  176  A    between atoms: _427  and  _430
REMARK  177  A    between atoms: _430  and  _431
REMARK  178  A    between atoms: _436  and  _437
REMARK  179  A    between atoms: _439  and  _441
REMARK  180  A    between atoms: _441  and  _442
REMARK  181  A    between atoms: _441  and  _444
REMARK  182  A    between atoms: _444  and  _445
REMARK  183  A    between atoms: _448  and  _450
REMARK  184  A    between atoms: _450  and  _451
REMARK  185  A    between atoms: _450  and  _453
REMARK  186  A    between atoms: _456  and  _458
REMARK  187  A    between atoms: _458  and  _459
REMARK  188  A    between atoms: _458  and  _461
REMARK  189  A    between atoms: _461  and  _462
REMARK  190  A    between atoms: _465  and  _467
REMARK  191  A    between atoms: _467  and  _468
REMARK  192  A    between atoms: _467  and  _470
REMARK  193  A    between atoms: _470  and  _471
REMARK  194  A    between atoms: _473  and  _475
REMARK  195  A    between atoms: _475  and  _476
REMARK  196  A    between atoms: _478  and  _480
REMARK  197  A    between atoms: _480  and  _481
REMARK  198  A    between atoms: _480  and  _483
REMARK  199  A    between atoms: _483  and  _484
REMARK  200  A    between atoms: _489  and  _490
REMARK  201  A    between atoms: _492  and  _494
REMARK  202  A    between atoms: _494  and  _495
REMARK  203  A    between atoms: _494  and  _497
REMARK  204  A    between atoms: _497  and  _498
REMARK  205  A    between atoms: _498  and  _499
REMARK  206  A    between atoms: _504  and  _506
REMARK  207  A    between atoms: _506  and  _507
REMARK  208  A    between atoms: _506  and  _509
REMARK  209  A    between atoms: _509  and  _510
REMARK  210  A    between atoms: _510  and  _511
REMARK  211  A    between atoms: _516  and  _518
REMARK  212  A    between atoms: _518  and  _519
REMARK  213  A    between atoms: _518  and  _521
REMARK  214  A    between atoms: _521  and  _522
REMARK  215  A    between atoms: _527  and  _528
REMARK  216  A    between atoms: _530  and  _532
REMARK  217  A    between atoms: _532  and  _533
REMARK  218  A    between atoms: _532  and  _535
REMARK  219  A    between atoms: _535  and  _536
REMARK  220  A    between atoms: _541  and  _542
REMARK  221  A    between atoms: _544  and  _546
REMARK  222  A    between atoms: _546  and  _547
REMARK  223  A    between atoms: _546  and  _549
REMARK  224  A    between atoms: _549  and  _550
REMARK  225  A    between atoms: _555  and  _556
REMARK  226  A    between atoms: _558  and  _560
REMARK  227  A    between atoms: _560  and  _561
REMARK  228  A    between atoms: _560  and  _563
REMARK  229  A    between atoms: _563  and  _564
REMARK  230  A    between atoms: _567  and  _569
REMARK  231  A    between atoms: _569  and  _570
REMARK  232  A    between atoms: _569  and  _572
REMARK  233  A    between atoms: _572  and  _573
REMARK  234  A    between atoms: _583  and  _585
REMARK  235  A    between atoms: _585  and  _586
REMARK  236  A    between atoms: _589  and  _591
REMARK  237  A    between atoms: _591  and  _592
REMARK  238  A    between atoms: _595  and  _597
REMARK  239  A    between atoms: _597  and  _598
REMARK  240  A    between atoms: _597  and  _600
REMARK  241  A    between atoms: _600  and  _601
REMARK  242  A    between atoms: _604  and  _606
REMARK  243  A    between atoms: _606  and  _607
REMARK  244  A    between atoms: _606  and  _609
REMARK  245  A    between atoms: _609  and  _610
REMARK  246  A    between atoms: _613  and  _615
REMARK  247  A    between atoms: _615  and  _616
REMARK  248  A    between atoms: _615  and  _618
REMARK  249  A    between atoms: _618  and  _619
REMARK  250  A    between atoms: _622  and  _624
REMARK  251  A    between atoms: _624  and  _625
REMARK  252  A    between atoms: _624  and  _627
REMARK  253  A    between atoms: _627  and  _628
REMARK  254  A    between atoms: _628  and  _629
REMARK  255  A    between atoms: _629  and  _630
REMARK  256  A    between atoms: _630  and  _631
REMARK  257  A    between atoms: _635  and  _637
REMARK  258  A    between atoms: _637  and  _638
REMARK  259  A    between atoms: _637  and  _640
REMARK  260  A    between atoms: _640  and  _641
REMARK  261  A    between atoms: _646  and  _648
REMARK  262  A    between atoms: _648  and  _649
REMARK  263  A    between atoms: _648  and  _651
REMARK  264  A    between atoms: _651  and  _652
REMARK  265  A    between atoms: _652  and  _653
REMARK  266  A    between atoms: _653  and  _654
REMARK  267  A    between atoms: _654  and  _655
REMARK  268  A    between atoms: _659  and  _661
REMARK  269  A    between atoms: _661  and  _662
REMARK  270  A    between atoms: _661  and  _664
REMARK  271  A    between atoms: _664  and  _665
REMARK  272  A    between atoms: _675  and  _677
REMARK  273  A    between atoms: _677  and  _678
REMARK  274  A    between atoms: _681  and  _683
REMARK  275  A    between atoms: _683  and  _684
REMARK  276  A    between atoms: _686  and  _688
REMARK  277  A    between atoms: _688  and  _689
REMARK  278  A    between atoms: _688  and  _691
REMARK  279  A    between atoms: _691  and  _692
REMARK  280  A    between atoms: _692  and  _693
REMARK  281  A    between atoms: _696  and  _698
REMARK  282  A    between atoms: _698  and  _699
REMARK  283  A    between atoms: _702  and  _704
REMARK  284  A    between atoms: _704  and  _705
REMARK  285  A    between atoms: _704  and  _707
REMARK  286  A    between atoms: _707  and  _708
REMARK  287  A    between atoms: _708  and  _709
REMARK  288  A    between atoms: _712  and  _714
REMARK  289  A    between atoms: _714  and  _715
REMARK  290  A    between atoms: _714  and  _717
REMARK  291  A    between atoms: _717  and  _718
REMARK  292  A    between atoms: _718  and  _719
REMARK  293  A    between atoms: _719  and  _720
REMARK  294  A    between atoms: _729  and  _731
REMARK  295  A    between atoms: _731  and  _732
REMARK  296  A    between atoms: _731  and  _734
REMARK  297  A    between atoms: _734  and  _735
REMARK  298  A    between atoms: _738  and  _740
REMARK  299  A    between atoms: _740  and  _741
REMARK  300  A    between atoms: _740  and  _743
REMARK  301  A    between atoms: _743  and  _744
REMARK  302  A    between atoms: _744  and  _745
REMARK  303  A    between atoms: _745  and  _746
REMARK  304  A    between atoms: _755  and  _757
REMARK  305  A    between atoms: _757  and  _758
REMARK  306  A    between atoms: _761  and  _763
REMARK  307  A    between atoms: _763  and  _764
REMARK  308  A    between atoms: _763  and  _766
REMARK  309  A    between atoms: _766  and  _767
REMARK  310  A    between atoms: _772  and  _773
REMARK  311  A    between atoms: _775  and  _777
REMARK  312  A    between atoms: _777  and  _778
REMARK  313  A    between atoms: _777  and  _780
REMARK  314  A    between atoms: _780  and  _781
REMARK  315  A    between atoms: _784  and  _786
REMARK  316  A    between atoms: _786  and  _787
REMARK  317  A    between atoms: _786  and  _789
REMARK  318  A    between atoms: _789  and  _790
REMARK  319  A    between atoms: _793  and  _795
REMARK  320  A    between atoms: _795  and  _796
REMARK  321  A    between atoms: _795  and  _798
REMARK  322  A    between atoms: _800  and  _802
REMARK  323  A    between atoms: _802  and  _803
REMARK  324  A    between atoms: _802  and  _805
REMARK  325  A    between atoms: _808  and  _810
REMARK  326  A    between atoms: _810  and  _811
REMARK  327  A    between atoms: _810  and  _813
REMARK  328  A    between atoms: _813  and  _814
REMARK  329  A    between atoms: _814  and  _815
REMARK  330  A    between atoms: _818  and  _820
REMARK  331  A    between atoms: _820  and  _821
REMARK  332  A    between atoms: _820  and  _823
REMARK  333  A    between atoms: _823  and  _824
REMARK  334  A    between atoms: _834  and  _836
REMARK  335  A    between atoms: _836  and  _837
REMARK  336  A    between atoms: _836  and  _839
REMARK  337  A    between atoms: _839  and  _840
REMARK  338  A    between atoms: _843  and  _845
REMARK  339  A    between atoms: _845  and  _846
REMARK  340  A    between atoms: _845  and  _848
REMARK  341  A    between atoms: _848  and  _849
REMARK  342  A    between atoms: _849  and  _850
REMARK  343  A    between atoms: _850  and  _851
REMARK  344  A    between atoms: _860  and  _862
REMARK  345  A    between atoms: _862  and  _863
REMARK  346  A    between atoms: _862  and  _865
REMARK  347  A    between atoms: _865  and  _866
REMARK  348  A    between atoms: _871  and  _872
REMARK  349  A    between atoms: _874  and  _876
REMARK  350  A    between atoms: _876  and  _877
REMARK  351  A    between atoms: _876  and  _879
REMARK  352  A    between atoms: _879  and  _880
REMARK  353  A    between atoms: _880  and  _881
REMARK  354  A    between atoms: _886  and  _888
REMARK  355  A    between atoms: _888  and  _889
REMARK  356  A    between atoms: _888  and  _891
REMARK  357  A    between atoms: _891  and  _892
REMARK  358  A    between atoms: _895  and  _897
REMARK  359  A    between atoms: _897  and  _898
REMARK  360  A    between atoms: _897  and  _900
REMARK  361  A    between atoms: _900  and  _901
REMARK  362  A    between atoms: _903  and  _905
REMARK  363  A    between atoms: _905  and  _906
REMARK  364  A    between atoms: _905  and  _908
REMARK  365  A    between atoms: _908  and  _909
REMARK  366  A    between atoms: _911  and  _913
REMARK  367  A    between atoms: _913  and  _914
REMARK  368  A    between atoms: _913  and  _916
REMARK  369  A    between atoms: _916  and  _917
REMARK  370  A    between atoms: _923  and  _925
REMARK  371  A    between atoms: _925  and  _926
REMARK  372  A    between atoms: _925  and  _928
REMARK  373  A    between atoms: _928  and  _929
REMARK  374  A    between atoms: _929  and  _930
REMARK  375  A    between atoms: _930  and  _931
REMARK  376  A    between atoms: _940  and  _942
REMARK  377  A    between atoms: _942  and  _943
REMARK  378  A    between atoms: _942  and  _945
REMARK  379  A    between atoms: _945  and  _946
REMARK  380  A    between atoms: _946  and  _947
REMARK  381  A    between atoms: _947  and  _948
REMARK  382  A    between atoms: _957  and  _959
REMARK  383  A    between atoms: _959  and  _960
REMARK  384  A    between atoms: _962  and  _964
REMARK  385  A    between atoms: _964  and  _965
REMARK  386  A    between atoms: _964  and  _967
REMARK  387  A    between atoms: _967  and  _968
REMARK  388  A    between atoms: _974  and  _975
REMARK  389  A    between atoms: _980  and  _982
REMARK  390  A    between atoms: _982  and  _983
REMARK  391  A    between atoms: _982  and  _985
REMARK  392  A    between atoms: _985  and  _986
REMARK  393  A    between atoms: _996  and  _998
REMARK  394  A    between atoms: _998  and  _999
REMARK  395  A    between atoms: _998  and  _1001
REMARK  396  A    between atoms: _1001  and  _1002
REMARK  397  A    between atoms: _1002  and  _1003
REMARK  398  A    between atoms: _1003  and  _1004
REMARK  399  A    between atoms: _1013  and  _1015
REMARK  400  A    between atoms: _1015  and  _1016
REMARK  401  A    between atoms: _1015  and  _1018
REMARK  402  A    between atoms: _1018  and  _1019
REMARK  403  A    between atoms: _1021  and  _1023
REMARK  404  A    between atoms: _1023  and  _1024
REMARK  405  A    between atoms: _1027  and  _1029
REMARK  406  A    between atoms: _1029  and  _1030
REMARK  407  A    between atoms: _1029  and  _1032
REMARK  408  A    between atoms: _1032  and  _1033
REMARK  409  A    between atoms: _1036  and  _1038
REMARK  410  A    between atoms: _1038  and  _1039
REMARK  411  A    between atoms: _1038  and  _1041
REMARK  412  A    between atoms: _1041  and  _1042
REMARK  413  A    between atoms: _1042  and  _1043
REMARK  414  A    between atoms: _1043  and  _1044
REMARK  415  A    between atoms: _1053  and  _1055
REMARK  416  A    between atoms: _1055  and  _1056
REMARK  417  A    between atoms: _1055  and  _1058
REMARK  418  A    between atoms: _1061  and  _1063
REMARK  419  A    between atoms: _1063  and  _1064
REMARK  420  A    between atoms: _1066  and  _1068
REMARK  421  A    between atoms: _1068  and  _1069
REMARK  422  A    between atoms: _1068  and  _1071
REMARK  423  A    between atoms: _1071  and  _1072
REMARK                            x       y       z     vdW  Elec       q    Type
REMARK                         _______ _______ _______ _____ _____    ______ ____
ROOT
ATOM      1  CA  ARG A   1      31.867  33.853  49.916  0.00  0.00    +0.145 C 
ENDROOT
BRANCH   1   2
ATOM      2  C   ARG A   1      30.702  33.843  48.932  0.00  0.00    +0.238 C 
ATOM      3  O   ARG A   1      29.693  33.207  49.272  0.00  0.00    -0.274 OA
ATOM      4  N   GLU A   2      30.833  34.469  47.758  0.00  0.00    -0.298 N 
ATOM      5  H   GLU A   2      31.711  34.961  47.497  0.00  0.00    +0.150 HD
BRANCH   4   6
ATOM      6  CA  GLU A   2      29.679  34.428  46.858  0.00  0.00    +0.137 C 
BRANCH   6   7
ATOM      7  C   GLU A   2      29.357  33.079  46.303  0.00  0.00    +0.227 C 
ATOM      8  O   GLU A   2      28.168  32.844  46.062  0.00  0.00    -0.286 OA
ENDBRANCH   6   7
BRANCH   6   9
ATOM      9  CB  GLU A   2      29.654  35.581  45.903  0.00  0.00    +0.039 C 
BRANCH   9  10
ATOM     10  CG  GLU A   2      30.050  36.877  46.659  0.00  0.00    +0.116 C 
BRANCH  10  11
ATOM     11  CD  GLU A   2      29.119  37.154  47.819  0.00  0.00    +0.365 C 
ATOM     12  OE2 GLU A   2      29.614  37.544  48.882  0.00  0.00    -0.246 OA
ATOM     13  OE1 GLU A   2      27.894  36.962  47.667  0.00  0.00    -0.246 OA
ENDBRANCH  10  11
ENDBRANCH   9  10
ENDBRANCH   6   9
ENDBRANCH   4   6
ENDBRANCH   1   2
BRANCH   1  14
ATOM     14  N   ARG A   1      33.104  33.502  49.223  0.00  0.00    -0.238 NA
ATOM     15  H   ARG A   1      33.905  34.165  49.224  0.00  0.00    +0.142 HD
ENDBRANCH   1  14
BRANCH   1  16
ATOM     16  CB  ARG A   1      31.914  35.150  50.671  0.00  0.00    +0.030 C 
BRANCH  16  17
ATOM     17  CG  ARG A   1      33.150  35.405  51.483  0.00  0.00    +0.045 C 
BRANCH  17  18
ATOM     18  CD  ARG A   1      32.892  36.502  52.519  0.00  0.00    +0.174 C 
BRANCH  18  19
ATOM     19  NE  ARG A   1      32.667  35.766  53.794  0.00  0.00    -0.265 N 
ATOM     20  CZ  ARG A   1      33.736  35.624  54.590  0.00  0.00    +0.342 C 
ATOM     21  NH2 ARG A   1      33.635  34.955  55.717  0.00  0.00    -0.292 N 
ATOM     22 HH21 ARG A   1      34.466  34.846  56.333  0.00  0.00    +0.255 HD
ATOM     23 HH22 ARG A   1      32.724  34.535  55.992  0.00  0.00    +0.255 HD
ATOM     24  NH1 ARG A   1      34.857  36.217  54.196  0.00  0.00    -0.292 N 
ATOM     25 HH11 ARG A   1      35.717  36.140  54.775  0.00  0.00    +0.255 HD
ATOM     26 HH12 ARG A   1      34.875  36.759  53.308  0.00  0.00    +0.255 HD
ATOM     27  HE  ARG A   1      31.735  35.384  54.052  0.00  0.00    +0.259 HD
ENDBRANCH  18  19
ENDBRANCH  17  18
ENDBRANCH  16  17
ENDBRANCH   1  16
TORSDOF 11
REMARK  Name = ../refined-set-2016/1fo0/1fo0_pocket.pdb
REMARK  423 active torsions:
REMARK  status: ('A' for Active; 'I' for Inactive)
REMARK    1  A    between atoms: _1  and  _3
REMARK    2  A    between atoms: _3  and  _4
REMARK    3  A    between atoms: _3  and  _6
REMARK    4  A    between atoms: _6  and  _7
REMARK    5  A    between atoms: _10  and  _12
REMARK    6  A    between atoms: _12  and  _13
REMARK    7  A    between atoms: _12  and  _15
REMARK    8  A    between atoms: _15  and  _16
REMARK    9  A    between atoms: _16  and  _17
REMARK   10  A    between atoms: _17  and  _18
REMARK   11  A    between atoms: _27  and  _29
REMARK   12  A    between atoms: _29  and  _30
REMARK   13  A    between atoms: _29  and  _32
REMARK   14  A    between atoms: _32  and  _33
REMARK   15  A    between atoms: _38  and  _39
REMARK   16  A    between atoms: _41  and  _43
REMARK   17  A    between atoms: _43  and  _44
REMARK   18  A    between atoms: _43  and  _46
REMARK   19  A    between atoms: _46  and  _47
REMARK   20  A    between atoms: _53  and  _55
REMARK   21  A    between atoms: _55  and  _56
REMARK   22  A    between atoms: _55  and  _58
REMARK   23  A    between atoms: _61  and  _63
REMARK   24  A    between atoms: _63  and  _64
REMARK   25  A    between atoms: _63  and  _66
REMARK   26  A    between atoms: _66  and  _67
REMARK   27  A    between atoms: _70  and  _72
REMARK   28  A    between atoms: _72  and  _73
REMARK   29  A    between atoms: _72  and  _75
REMARK   30  A    between atoms: _75  and  _76
REMARK   31  A    between atoms: _81  and  _82
REMARK   32  A    between atoms: _84  and  _86
REMARK   33  A    between atoms: _86  and  _87
REMARK   34  A    between atoms: _86  and  _89
REMARK   35  A    between atoms: _89  and  _90
REMARK   36  A    between atoms: _90  and  _91
REMARK   37  A    between atoms: _93  and  _95
REMARK   38  A    between atoms: _95  and  _96
REMARK   39  A    between atoms: _95  and  _98
REMARK   40  A    between atoms: _98  and  _99
REMARK   41  A    between atoms: _99  and  _100
REMARK   42  A    between atoms: _103  and  _105
REMARK   43  A    between atoms: _105  and  _106
REMARK   44  A    between atoms: _105  and  _108
REMARK   45  A    between atoms: _111  and  _113
REMARK   46  A    between atoms: _113  and  _114
REMARK   47  A    between atoms: _116  and  _118
REMARK   48  A    between atoms: _118  and  _119
REMARK   49  A    between atoms: _118  and  _121
REMARK   50  A    between atoms: _121  and  _122
REMARK   51  A    between atoms: _128  and  _130
REMARK   52  A    between atoms: _130  and  _131
REMARK   53  A    between atoms: _130  and  _133
REMARK   54  A    between atoms: _136  and  _138
REMARK   55  A    between atoms: _138  and  _139
REMARK   56  A    between atoms: _138  and  _141
REMARK   57  A    between atoms: _141  and  _142
REMARK   58  A    between atoms: _148  and  _150
REMARK   59  A    between atoms: _150  and  _151
REMARK   60  A    between atoms: _150  and  _153
REMARK   61  A    between atoms: _153  and  _154
REMARK   62  A    between atoms: _159  and  _160
REMARK   63  A    between atoms: _162  and  _164
REMARK   64  A    between atoms: _164  and  _165
REMARK   65  A    between atoms: _164  and  _167
REMARK   66  A    between atoms: _167  and  _168
REMARK   67  A    between atoms: _168  and  _169
REMARK   68  A    between atoms: _171  and  _173
REMARK   69  A    between atoms: _173  and  _174
REMARK   70  A    between atoms: _173  and  _176
REMARK   71  A    between atoms: _176  and  _177
REMARK   72  A    between atoms: _177  and  _178
REMARK   73  A    between atoms: _181  and  _183
REMARK   74  A    between atoms: _183  and  _184
REMARK   75  A    between atoms: _183  and  _186
REMARK   76  A    between atoms: _186  and  _187
REMARK   77  A    between atoms: _192  and  _193
REMARK   78  A    between atoms: _195  and  _197
REMARK   79  A    between atoms: _197  and  _198
REMARK   80  A    between atoms: _197  and  _200
REMARK   81  A    between atoms: _200  and  _201
REMARK   82  A    between atoms: _201  and  _202
REMARK   83  A    between atoms: _202  and  _203
REMARK   84  A    between atoms: _212  and  _214
REMARK   85  A    between atoms: _214  and  _215
REMARK   86  A    between atoms: _214  and  _217
REMARK   87  A    between atoms: _217  and  _218
REMARK   88  A    between atoms: _218  and  _219
REMARK   89  A    between atoms: _222  and  _224
REMARK   90  A    between atoms: _224  and  _225
REMARK   91  A    between atoms: _224  and  _227
REMARK   92  A    between atoms: _227  and  _228
REMARK   93  A    between atoms: _228  and  _229
REMARK   94  A    between atoms: _234  and  _236
REMARK   95  A    between atoms: _236  and  _237
REMARK   96  A    between atoms: _236  and  _239
REMARK   97  A    between atoms: _239  and  _240
REMARK   98  A    between atoms: _240  and  _241
REMARK   99  A    between atoms: _241  and  _242
REMARK  100  A    between atoms: _242  and  _243
REMARK  101  A    between atoms: _247  and  _249
REMARK  102  A    between atoms: _249  and  _250
REMARK  103  A    between atoms: _253  and  _255
REMARK  104  A    between atoms: _255  and  _256
REMARK  105  A    between atoms: _255  and  _258
REMARK  106  A    between atoms: _258  and  _259
REMARK  107  A    between atoms: _259  and  _260
REMARK  108  A    between atoms: _260  and  _261
REMARK  109  A    between atoms: _261  and  _262
REMARK  110  A    between atoms: _266  and  _268
REMARK  111  A    between atoms: _268  and  _269
REMARK  112  A    between atoms: _271  and  _273
REMARK  113  A    between atoms: _273  and  _274
REMARK  114  A    between atoms: _273  and  _276
REMARK  115  A    between atoms: _276  and  _277
REMARK  116  A    between atoms: _282  and  _284
REMARK  117  A    between atoms: _284  and  _285
REMARK  118  A    between atoms: _284  and  _287
REMARK  119  A    between atoms: _287  and  _288
REMARK  120  A    between atoms: _288  and  _289
REMARK  121  A    between atoms: _292  and  _294
REMARK  122  A    between atoms: _294  and  _295
REMARK  123  A    between atoms: _294  and  _297
REMARK  124  A    between atoms: _297  and  _298
REMARK  125  A    between atoms: _298  and  _299
REMARK  126  A    between atoms: _304  and  _306
REMARK  127  A    between atoms: _306  and  _307
REMARK  128  A    between atoms: _306  and  _309
REMARK  129  A    between atoms: _309  and  _310
REMARK  130  A    between atoms: _312  and  _314
REMARK  131  A    between atoms: _314  and  _315
REMARK  132  A    between atoms: _314  and  _317
REMARK  133  A    between atoms: _317  and  _318
REMARK  134  A    between atoms: _324  and  _326
REMARK  135  A    between atoms: _326  and  _327
REMARK  136  A    between atoms: _326  and  _329
REMARK  137  A    between atoms: _329  and  _330
REMARK  138  A    between atoms: _330  and  _331
REMARK  139  A    between atoms: _331  and  _332
REMARK  140  A    between atoms: _341  and  _343
REMARK  141  A    between atoms: _343  and  _344
REMARK  142  A    between atoms: _343  and  _346
REMARK  143  A    between atoms: _349  and  _351
REMARK  144  A    between atoms: _351  and  _352
REMARK  145  A    between atoms: _351  and  _354
REMARK  146  A    between atoms: _354  and  _355
REMARK  147  A    between atoms: _358  and  _360
REMARK  148  A    between atoms: _360  and  _361
REMARK  149  A    between atoms: _360  and  _363
REMARK  150  A    between atoms: _363  and  _364
REMARK  151  A    between atoms: _367  and  _369
REMARK  152  A    between atoms: _369  and  _370
REMARK  153  A    between atoms: _369  and  _372
REMARK  154  A    between atoms: _372  and  _373
REMARK  155  A    between atoms: _373  and  _374
REMARK  156  A    between atoms: _374  and  _375
REMARK  157  A    between atoms: _384  and  _386
REMARK  158  A    between atoms: _386  and  _387
REMARK  159  A    between atoms: _386  and  _389
REMARK  160  A    between atoms: _389  and  _390
REMARK  161  A    between atoms: _393  and  _395
REMARK  162  A    between atoms: _395  and  _396
REMARK  163  A    between atoms: _395  and  _398
REMARK  164  A    between atoms: _398  and  _399
REMARK  165  A    between atoms: _402  and  _404
REMARK  166  A    between atoms: _404  and  _405
REMARK  167  A    between atoms: _404  and  _407
REMARK  168  A    between atoms: _407  and  _408
REMARK  169  A    between atoms: _411  and  _413
REMARK  170  A    between atoms: _413  and  _414
REMARK  171  A    between atoms: _413  and  _416
REMARK  172  A    between atoms: _416  and  _417
REMARK  173  A    between atoms: _422  and  _423
REMARK  174  A    between atoms: _425  and  _427
REMARK  175  A    between atoms: _427  and  _428
REMARK  176  A    between atoms: _427  and  _430
REMARK  177  A    between atoms: _430  and  _431
REMARK  178  A    between atoms: _436  and  _437
REMARK  179  A    between atoms: _439  and  _441
REMARK  180  A    between atoms: _441  and  _442
REMARK  181  A    between atoms: _441  and  _444
REMARK  182  A    between atoms: _444  and  _445
REMARK  183  A    between atoms: _448  and  _450
REMARK  184  A    between atoms: _450  and  _451
REMARK  185  A    between atoms: _450  and  _453
REMARK  186  A    between atoms: _456  and  _458
REMARK  187  A    between atoms: _458  and  _459
REMARK  188  A    between atoms: _458  and  _461
REMARK  189  A    between atoms: _461  and  _462
REMARK  190  A    between atoms: _465  and  _467
REMARK  191  A    between atoms: _467  and  _468
REMARK  192  A    between atoms: _467  and  _470
REMARK  193  A    between atoms: _470  and  _471
REMARK  194  A    between atoms: _473  and  _475
REMARK  195  A    between atoms: _475  and  _476
REMARK  196  A    between atoms: _478  and  _480
REMARK  197  A    between atoms: _480  and  _481
REMARK  198  A    between atoms: _480  and  _483
REMARK  199  A    between atoms: _483  and  _484
REMARK  200  A    between atoms: _489  and  _490
REMARK  201  A    between atoms: _492  and  _494
REMARK  202  A    between atoms: _494  and  _495
REMARK  203  A    between atoms: _494  and  _497
REMARK  204  A    between atoms: _497  and  _498
REMARK  205  A    between atoms: _498  and  _499
REMARK  206  A    between atoms: _504  and  _506
REMARK  207  A    between atoms: _506  and  _507
REMARK  208  A    between atoms: _506  and  _509
REMARK  209  A    between atoms: _509  and  _510
REMARK  210  A    between atoms: _510  and  _511
REMARK  211  A    between atoms: _516  and  _518
REMARK  212  A    between atoms: _518  and  _519
REMARK  213  A    between atoms: _518  and  _521
REMARK  214  A    between atoms: _521  and  _522
REMARK  215  A    between atoms: _527  and  _528
REMARK  216  A    between atoms: _530  and  _532
REMARK  217  A    between atoms: _532  and  _533
REMARK  218  A    between atoms: _532  and  _535
REMARK  219  A    between atoms: _535  and  _536
REMARK  220  A    between atoms: _541  and  _542
REMARK  221  A    between atoms: _544  and  _546
REMARK  222  A    between atoms: _546  and  _547
REMARK  223  A    between atoms: _546  and  _549
REMARK  224  A    between atoms: _549  and  _550
REMARK  225  A    between atoms: _555  and  _556
REMARK  226  A    between atoms: _558  and  _560
REMARK  227  A    between atoms: _560  and  _561
REMARK  228  A    between atoms: _560  and  _563
REMARK  229  A    between atoms: _563  and  _564
REMARK  230  A    between atoms: _567  and  _569
REMARK  231  A    between atoms: _569  and  _570
REMARK  232  A    between atoms: _569  and  _572
REMARK  233  A    between atoms: _572  and  _573
REMARK  234  A    between atoms: _583  and  _585
REMARK  235  A    between atoms: _585  and  _586
REMARK  236  A    between atoms: _589  and  _591
REMARK  237  A    between atoms: _591  and  _592
REMARK  238  A    between atoms: _595  and  _597
REMARK  239  A    between atoms: _597  and  _598
REMARK  240  A    between atoms: _597  and  _600
REMARK  241  A    between atoms: _600  and  _601
REMARK  242  A    between atoms: _604  and  _606
REMARK  243  A    between atoms: _606  and  _607
REMARK  244  A    between atoms: _606  and  _609
REMARK  245  A    between atoms: _609  and  _610
REMARK  246  A    between atoms: _613  and  _615
REMARK  247  A    between atoms: _615  and  _616
REMARK  248  A    between atoms: _615  and  _618
REMARK  249  A    between atoms: _618  and  _619
REMARK  250  A    between atoms: _622  and  _624
REMARK  251  A    between atoms: _624  and  _625
REMARK  252  A    between atoms: _624  and  _627
REMARK  253  A    between atoms: _627  and  _628
REMARK  254  A    between atoms: _628  and  _629
REMARK  255  A    between atoms: _629  and  _630
REMARK  256  A    between atoms: _630  and  _631
REMARK  257  A    between atoms: _635  and  _637
REMARK  258  A    between atoms: _637  and  _638
REMARK  259  A    between atoms: _637  and  _640
REMARK  260  A    between atoms: _640  and  _641
REMARK  261  A    between atoms: _646  and  _648
REMARK  262  A    between atoms: _648  and  _649
REMARK  263  A    between atoms: _648  and  _651
REMARK  264  A    between atoms: _651  and  _652
REMARK  265  A    between atoms: _652  and  _653
REMARK  266  A    between atoms: _653  and  _654
REMARK  267  A    between atoms: _654  and  _655
REMARK  268  A    between atoms: _659  and  _661
REMARK  269  A    between atoms: _661  and  _662
REMARK  270  A    between atoms: _661  and  _664
REMARK  271  A    between atoms: _664  and  _665
REMARK  272  A    between atoms: _675  and  _677
REMARK  273  A    between atoms: _677  and  _678
REMARK  274  A    between atoms: _681  and  _683
REMARK  275  A    between atoms: _683  and  _684
REMARK  276  A    between atoms: _686  and  _688
REMARK  277  A    between atoms: _688  and  _689
REMARK  278  A    between atoms: _688  and  _691
REMARK  279  A    between atoms: _691  and  _692
REMARK  280  A    between atoms: _692  and  _693
REMARK  281  A    between atoms: _696  and  _698
REMARK  282  A    between atoms: _698  and  _699
REMARK  283  A    between atoms: _702  and  _704
REMARK  284  A    between atoms: _704  and  _705
REMARK  285  A    between atoms: _704  and  _707
REMARK  286  A    between atoms: _707  and  _708
REMARK  287  A    between atoms: _708  and  _709
REMARK  288  A    between atoms: _712  and  _714
REMARK  289  A    between atoms: _714  and  _715
REMARK  290  A    between atoms: _714  and  _717
REMARK  291  A    between atoms: _717  and  _718
REMARK  292  A    between atoms: _718  and  _719
REMARK  293  A    between atoms: _719  and  _720
REMARK  294  A    between atoms: _729  and  _731
REMARK  295  A    between atoms: _731  and  _732
REMARK  296  A    between atoms: _731  and  _734
REMARK  297  A    between atoms: _734  and  _735
REMARK  298  A    between atoms: _738  and  _740
REMARK  299  A    between atoms: _740  and  _741
REMARK  300  A    between atoms: _740  and  _743
REMARK  301  A    between atoms: _743  and  _744
REMARK  302  A    between atoms: _744  and  _745
REMARK  303  A    between atoms: _745  and  _746
REMARK  304  A    between atoms: _755  and  _757
REMARK  305  A    between atoms: _757  and  _758
REMARK  306  A    between atoms: _761  and  _763
REMARK  307  A    between atoms: _763  and  _764
REMARK  308  A    between atoms: _763  and  _766
REMARK  309  A    between atoms: _766  and  _767
REMARK  310  A    between atoms: _772  and  _773
REMARK  311  A    between atoms: _775  and  _777
REMARK  312  A    between atoms: _777  and  _778
REMARK  313  A    between atoms: _777  and  _780
REMARK  314  A    between atoms: _780  and  _781
REMARK  315  A    between atoms: _784  and  _786
REMARK  316  A    between atoms: _786  and  _787
REMARK  317  A    between atoms: _786  and  _789
REMARK  318  A    between atoms: _789  and  _790
REMARK  319  A    between atoms: _793  and  _795
REMARK  320  A    between atoms: _795  and  _796
REMARK  321  A    between atoms: _795  and  _798
REMARK  322  A    between atoms: _800  and  _802
REMARK  323  A    between atoms: _802  and  _803
REMARK  324  A    between atoms: _802  and  _805
REMARK  325  A    between atoms: _808  and  _810
REMARK  326  A    between atoms: _810  and  _811
REMARK  327  A    between atoms: _810  and  _813
REMARK  328  A    between atoms: _813  and  _814
REMARK  329  A    between atoms: _814  and  _815
REMARK  330  A    between atoms: _818  and  _820
REMARK  331  A    between atoms: _820  and  _821
REMARK  332  A    between atoms: _820  and  _823
REMARK  333  A    between atoms: _823  and  _824
REMARK  334  A    between atoms: _834  and  _836
REMARK  335  A    between atoms: _836  and  _837
REMARK  336  A    between atoms: _836  and  _839
REMARK  337  A    between atoms: _839  and  _840
REMARK  338  A    between atoms: _843  and  _845
REMARK  339  A    between atoms: _845  and  _846
REMARK  340  A    between atoms: _845  and  _848
REMARK  341  A    between atoms: _848  and  _849
REMARK  342  A    between atoms: _849  and  _850
REMARK  343  A    between atoms: _850  and  _851
REMARK  344  A    between atoms: _860  and  _862
REMARK  345  A    between atoms: _862  and  _863
REMARK  346  A    between atoms: _862  and  _865
REMARK  347  A    between atoms: _865  and  _866
REMARK  348  A    between atoms: _871  and  _872
REMARK  349  A    between atoms: _874  and  _876
REMARK  350  A    between atoms: _876  and  _877
REMARK  351  A    between atoms: _876  and  _879
REMARK  352  A    between atoms: _879  and  _880
REMARK  353  A    between atoms: _880  and  _881
REMARK  354  A    between atoms: _886  and  _888
REMARK  355  A    between atoms: _888  and  _889
REMARK  356  A    between atoms: _888  and  _891
REMARK  357  A    between atoms: _891  and  _892
REMARK  358  A    between atoms: _895  and  _897
REMARK  359  A    between atoms: _897  and  _898
REMARK  360  A    between atoms: _897  and  _900
REMARK  361  A    between atoms: _900  and  _901
REMARK  362  A    between atoms: _903  and  _905
REMARK  363  A    between atoms: _905  and  _906
REMARK  364  A    between atoms: _905  and  _908
REMARK  365  A    between atoms: _908  and  _909
REMARK  366  A    between atoms: _911  and  _913
REMARK  367  A    between atoms: _913  and  _914
REMARK  368  A    between atoms: _913  and  _916
REMARK  369  A    between atoms: _916  and  _917
REMARK  370  A    between atoms: _923  and  _925
REMARK  371  A    between atoms: _925  and  _926
REMARK  372  A    between atoms: _925  and  _928
REMARK  373  A    between atoms: _928  and  _929
REMARK  374  A    between atoms: _929  and  _930
REMARK  375  A    between atoms: _930  and  _931
REMARK  376  A    between atoms: _940  and  _942
REMARK  377  A    between atoms: _942  and  _943
REMARK  378  A    between atoms: _942  and  _945
REMARK  379  A    between atoms: _945  and  _946
REMARK  380  A    between atoms: _946  and  _947
REMARK  381  A    between atoms: _947  and  _948
REMARK  382  A    between atoms: _957  and  _959
REMARK  383  A    between atoms: _959  and  _960
REMARK  384  A    between atoms: _962  and  _964
REMARK  385  A    between atoms: _964  and  _965
REMARK  386  A    between atoms: _964  and  _967
REMARK  387  A    between atoms: _967  and  _968
REMARK  388  A    between atoms: _974  and  _975
REMARK  389  A    between atoms: _980  and  _982
REMARK  390  A    between atoms: _982  and  _983
REMARK  391  A    between atoms: _982  and  _985
REMARK  392  A    between atoms: _985  and  _986
REMARK  393  A    between atoms: _996  and  _998
REMARK  394  A    between atoms: _998  and  _999
REMARK  395  A    between atoms: _998  and  _1001
REMARK  396  A    between atoms: _1001  and  _1002
REMARK  397  A    between atoms: _1002  and  _1003
REMARK  398  A    between atoms: _1003  and  _1004
REMARK  399  A    between atoms: _1013  and  _1015
REMARK  400  A    between atoms: _1015  and  _1016
REMARK  401  A    between atoms: _1015  and  _1018
REMARK  402  A    between atoms: _1018  and  _1019
REMARK  403  A    between atoms: _1021  and  _1023
REMARK  404  A    between atoms: _1023  and  _1024
REMARK  405  A    between atoms: _1027  and  _1029
REMARK  406  A    between atoms: _1029  and  _1030
REMARK  407  A    between atoms: _1029  and  _1032
REMARK  408  A    between atoms: _1032  and  _1033
REMARK  409  A    between atoms: _1036  and  _1038
REMARK  410  A    between atoms: _1038  and  _1039
REMARK  411  A    between atoms: _1038  and  _1041
REMARK  412  A    between atoms: _1041  and  _1042
REMARK  413  A    between atoms: _1042  and  _1043
REMARK  414  A    between atoms: _1043  and  _1044
REMARK  415  A    between atoms: _1053  and  _1055
REMARK  416  A    between atoms: _1055  and  _1056
REMARK  417  A    between atoms: _1055  and  _1058
REMARK  418  A    between atoms: _1061  and  _1063
REMARK  419  A    between atoms: _1063  and  _1064
REMARK  420  A    between atoms: _1066  and  _1068
REMARK  421  A    between atoms: _1068  and  _1069
REMARK  422  A    between atoms: _1068  and  _1071
REMARK  423  A    between atoms: _1071  and  _1072
REMARK                            x       y       z     vdW  Elec       q    Type
REMARK                         _______ _______ _______ _____ _____    ______ ____
ROOT
ATOM      1  CA  PHE A  10      15.546  26.522  45.434  0.00  0.00    +0.153 C 
ENDROOT
BRANCH   1   4
ATOM      2  C   SER A   9      15.744  26.459  47.819  0.00  0.00    +0.243 C 
ATOM      3  O   SER A   9      14.599  26.033  47.906  0.00  0.00    -0.273 OA
ATOM      4  N   PHE A  10      16.315  26.721  46.643  0.00  0.00    -0.297 N 
ATOM      5  H   PHE A  10      17.296  27.062  46.596  0.00  0.00    +0.150 HD
BRANCH   2   6
ATOM      6  CA  SER A   9      16.660  26.661  49.032  0.00  0.00    +0.178 C 
BRANCH   6   8
ATOM      7  C   GLN A   8      18.115  24.762  48.551  0.00  0.00    +0.241 C 
ATOM      8  N   SER A   9      17.971  26.066  48.766  0.00  0.00    -0.295 N 
ATOM      9  H   SER A   9      18.811  26.679  48.745  0.00  0.00    +0.150 HD
ATOM     10  O   GLN A   8      17.192  23.942  48.574  0.00  0.00    -0.273 OA
BRANCH   7  11
ATOM     11  CA  GLN A   8      19.504  24.249  48.243  0.00  0.00    +0.149 C 
BRANCH  11  13
ATOM     12  C   GLU A   7      19.943  25.418  46.171  0.00  0.00    +0.241 C 
ATOM     13  N   GLN A   8      20.259  25.205  47.453  0.00  0.00    -0.297 N 
ATOM     14  H   GLN A   8      21.048  25.726  47.886  0.00  0.00    +0.150 HD
ATOM     15  O   GLU A   7      19.036  24.781  45.603  0.00  0.00    -0.273 OA
BRANCH  12  16
ATOM     16  CA  GLU A   7      20.736  26.454  45.400  0.00  0.00    +0.149 C 
BRANCH  16  19
ATOM     17  C   ASN A   6      20.152  28.296  46.840  0.00  0.00    +0.241 C 
ATOM     18  O   ASN A   6      18.965  27.974  46.843  0.00  0.00    -0.273 OA
ATOM     19  N   GLU A   7      21.077  27.624  46.191  0.00  0.00    -0.297 N 
ATOM     20  H   GLU A   7      22.068  27.935  46.245  0.00  0.00    +0.150 HD
BRANCH  17  21
ATOM     21  CA  ASN A   6      20.624  29.488  47.664  0.00  0.00    +0.158 C 
BRANCH  21  24
ATOM     22  C   GLY A   5      21.759  27.991  49.185  0.00  0.00    +0.243 C 
ATOM     23  O   GLY A   5      20.713  27.351  49.350  0.00  0.00    -0.273 OA
ATOM     24  N   ASN A   6      21.829  29.059  48.377  0.00  0.00    -0.297 N 
ATOM     25  H   ASN A   6      22.725  29.574  48.259  0.00  0.00    +0.150 HD
BRANCH  22  26
ATOM     26  CA  GLY A   5      23.030  27.556  49.873  0.00  0.00    +0.176 C 
BRANCH  26  28
ATOM     27  C   LYS A   4      24.352  26.857  47.949  0.00  0.00    +0.241 C 
ATOM     28  N   GLY A   5      24.198  27.669  48.976  0.00  0.00    -0.295 N 
ATOM     29  H   GLY A   5      24.912  28.403  49.158  0.00  0.00    +0.150 HD
ATOM     30  O   LYS A   4      23.490  26.012  47.682  0.00  0.00    -0.273 OA
BRANCH  27  31
ATOM     31  CA  LYS A   4      25.514  27.028  47.025  0.00  0.00    +0.149 C 
BRANCH  31  33
ATOM     32  C   ALA A   3      24.709  29.079  46.089  0.00  0.00    +0.241 C 
ATOM     33  N   LYS A   4      25.694  28.441  46.717  0.00  0.00    -0.297 N 
ATOM     34  H   LYS A   4      26.569  28.938  46.981  0.00  0.00    +0.150 HD
ATOM     35  O   ALA A   3      23.667  28.530  45.753  0.00  0.00    -0.273 OA
BRANCH  32  36
ATOM     36  CA  ALA A   3      24.938  30.562  45.810  0.00  0.00    +0.149 C 
ATOM     37  CB  ALA A   3      25.658  30.697  44.484  0.00  0.00    +0.031 C 
BRANCH  36  40
ATOM     38  C   LYS A   2      25.215  31.235  48.119  0.00  0.00    +0.241 C 
ATOM     39  O   LYS A   2      24.095  30.828  48.395  0.00  0.00    -0.273 OA
ATOM     40  N   ALA A   3      25.708  31.146  46.903  0.00  0.00    -0.297 N 
ATOM     41  H   ALA A   3      26.668  31.500  46.716  0.00  0.00    +0.150 HD
BRANCH  38  42
ATOM     42  CA  LYS A   2      26.122  31.819  49.189  0.00  0.00    +0.149 C 
BRANCH  42  45
ATOM     43  C   GLN A   1      27.702  29.947  49.275  0.00  0.00    +0.238 C 
ATOM     44  O   GLN A   1      26.803  29.113  49.374  0.00  0.00    -0.274 OA
ATOM     45  N   LYS A   2      27.441  31.231  49.169  0.00  0.00    -0.297 N 
ATOM     46  H   LYS A   2      28.250  31.876  49.062  0.00  0.00    +0.150 HD
BRANCH  43  47
ATOM     47  CA  GLN A   1      29.158  29.522  49.170  0.00  0.00    +0.145 C 
BRANCH  47  48
ATOM     48  N   GLN A   1      29.788  30.244  48.046  0.00  0.00    -0.238 NA
ATOM     49  H   GLN A   1      30.577  30.902  48.209  0.00  0.00    +0.142 HD
ENDBRANCH  47  48
BRANCH  47  50
ATOM     50  CB  GLN A   1      29.915  29.663  50.461  0.00  0.00    +0.036 C 
BRANCH  50  51
ATOM     51  CG  GLN A   1      31.298  29.053  50.512  0.00  0.00    +0.087 C 
BRANCH  51  52
ATOM     52  CD  GLN A   1      31.310  27.572  50.207  0.00  0.00    +0.219 C 
ATOM     53  OE1 GLN A   1      30.540  26.804  50.798  0.00  0.00    -0.275 OA
ATOM     54  NE2 GLN A   1      32.169  27.191  49.254  0.00  0.00    -0.329 N 
ATOM     55 HE21 GLN A   1      32.218  26.192  48.967  0.00  0.00    +0.145 HD
ATOM     56 HE22 GLN A   1      32.787  27.893  48.800  0.00  0.00    +0.145 HD
ENDBRANCH  51  52
ENDBRANCH  50  51
ENDBRANCH  47  50
ENDBRANCH  43  47
ENDBRANCH  42  45
BRANCH  42  57
ATOM     57  CB  LYS A   2      26.164  33.342  48.973  0.00  0.00    +0.029 C 
BRANCH  57  58
ATOM     58  CG  LYS A   2      24.783  33.974  49.109  0.00  0.00    +0.000 C 
BRANCH  58  59
ATOM     59  CD  LYS A   2      24.771  35.443  48.770  0.00  0.00    -0.024 C 
BRANCH  59  60
ATOM     60  CE  LYS A   2      25.238  36.293  49.949  0.00  0.00    -0.086 C 
BRANCH  60  61
ATOM     61  NZ  LYS A   2      26.044  37.443  49.414  0.00  0.00    +0.380 N 
ATOM     62  HZ1 LYS A   2      26.371  38.034  50.205  0.00  0.00    -0.089 HD
ATOM     63  HZ2 LYS A   2      26.865  37.076  48.892  0.00  0.00    -0.089 HD
ATOM     64  HZ3 LYS A   2      25.452  38.013  48.776  0.00  0.00    -0.089 HD
ENDBRANCH  60  61
ENDBRANCH  59  60
ENDBRANCH  58  59
ENDBRANCH  57  58
ENDBRANCH  42  57
ENDBRANCH  38  42
ENDBRANCH  36  40
ENDBRANCH  32  36
ENDBRANCH  31  33
BRANCH  31  65
ATOM     65  CB  LYS A   4      26.839  26.401  47.398  0.00  0.00    +0.029 C 
BRANCH  65  66
ATOM     66  CG  LYS A   4      27.402  25.651  46.223  0.00  0.00    +0.000 C 
BRANCH  66  67
ATOM     67  CD  LYS A   4      28.799  26.002  45.809  0.00  0.00    -0.024 C 
BRANCH  67  68
ATOM     68  CE  LYS A   4      29.782  25.479  46.839  0.00  0.00    -0.086 C 
BRANCH  68  69
ATOM     69  NZ  LYS A   4      31.026  24.969  46.163  0.00  0.00    +0.380 N 
ATOM     70  HZ1 LYS A   4      31.689  24.614  46.882  0.00  0.00    -0.089 HD
ATOM     71  HZ2 LYS A   4      31.472  25.743  45.630  0.00  0.00    -0.089 HD
ATOM     72  HZ3 LYS A   4      30.774  24.198  45.512  0.00  0.00    -0.089 HD
ENDBRANCH  68  69
ENDBRANCH  67  68
ENDBRANCH  66  67
ENDBRANCH  65  66
ENDBRANCH  31  65
ENDBRANCH  27  31
ENDBRANCH  26  28
ENDBRANCH  22  26
ENDBRANCH  21  24
BRANCH  21  73
ATOM     73  CB  ASN A   6      20.832  30.681  46.747  0.00  0.00    +0.114 C 
BRANCH  73  74
ATOM     74  CG  ASN A   6      21.061  31.965  47.498  0.00  0.00    +0.222 C 
ATOM     75  OD1 ASN A   6      20.742  32.025  48.691  0.00  0.00    -0.275 OA
ATOM     76  ND2 ASN A   6      21.601  32.990  46.854  0.00  0.00    -0.329 N 
ATOM     77 HD21 ASN A   6      21.771  33.887  47.353  0.00  0.00    +0.145 HD
ATOM     78 HD22 ASN A   6      21.855  32.898  45.850  0.00  0.00    +0.145 HD
ENDBRANCH  73  74
ENDBRANCH  21  73
ENDBRANCH  17  21
ENDBRANCH  16  19
BRANCH  16  79
ATOM     79  CB  GLU A   7      22.014  25.846  44.841  0.00  0.00    +0.041 C 
BRANCH  79  80
ATOM     80  CG  GLU A   7      21.788  24.606  44.015  0.00  0.00    +0.116 C 
BRANCH  80  81
ATOM     81  CD  GLU A   7      23.058  24.029  43.426  0.00  0.00    +0.365 C 
ATOM     82  OE2 GLU A   7      24.174  24.447  43.779  0.00  0.00    -0.246 OA
ATOM     83  OE1 GLU A   7      22.935  23.105  42.579  0.00  0.00    -0.246 OA
ENDBRANCH  80  81
ENDBRANCH  79  80
ENDBRANCH  16  79
ENDBRANCH  12  16
ENDBRANCH  11  13
BRANCH  11  84
ATOM     84  CB  GLN A   8      20.228  23.852  49.520  0.00  0.00    +0.039 C 
BRANCH  84  85
ATOM     85  CG  GLN A   8      21.564  23.179  49.180  0.00  0.00    +0.087 C 
BRANCH  85  86
ATOM     86  CD  GLN A   8      21.415  21.919  48.348  0.00  0.00    +0.219 C 
ATOM     87  OE1 GLN A   8      20.395  21.207  48.470  0.00  0.00    -0.275 OA
ATOM     88  NE2 GLN A   8      22.396  21.603  47.495  0.00  0.00    -0.329 N 
ATOM     89 HE21 GLN A   8      23.233  22.215  47.415  0.00  0.00    +0.145 HD
ATOM     90 HE22 GLN A   8      22.322  20.745  46.912  0.00  0.00    +0.145 HD
ENDBRANCH  85  86
ENDBRANCH  84  85
ENDBRANCH  11  84
ENDBRANCH   7  11
ENDBRANCH   6   8
BRANCH   6  91
ATOM     91  CB  SER A   9      16.864  28.160  49.248  0.00  0.00    +0.166 C 
BRANCH  91  92
ATOM     92  OG  SER A   9      17.021  28.441  50.616  0.00  0.00    -0.380 OA
ATOM     93  H   SER A   9      17.152  29.415  50.739  0.00  0.00    +0.211 HD
ENDBRANCH  91  92
ENDBRANCH   6  91
ENDBRANCH   2   6
ENDBRANCH   1   4
BRANCH   1  94
ATOM     94  C   PHE A  10      15.222  25.080  45.168  0.00  0.00    +0.241 C 
ATOM     95  N   ARG A  11      16.051  24.100  45.526  0.00  0.00    -0.297 N 
ATOM     96  H   ARG A  11      16.963  24.325  45.972  0.00  0.00    +0.150 HD
ATOM     97  O   PHE A  10      14.144  24.793  44.603  0.00  0.00    -0.273 OA
BRANCH  95  98
ATOM     98  CA  ARG A  11      15.671  22.696  45.288  0.00  0.00    +0.149 C 
BRANCH  98  99
ATOM     99  C   ARG A  11      14.438  22.345  46.141  0.00  0.00    +0.241 C 
ATOM    100  N   VAL A  12      14.459  22.829  47.390  0.00  0.00    -0.297 N 
ATOM    101  H   VAL A  12      15.291  23.357  47.724  0.00  0.00    +0.150 HD
ATOM    102  O   ARG A  11      13.513  21.671  45.692  0.00  0.00    -0.273 OA
BRANCH 100 103
ATOM    103  CA  VAL A  12      13.331  22.624  48.283  0.00  0.00    +0.149 C 
BRANCH 103 104
ATOM    104  C   VAL A  12      12.126  23.394  47.763  0.00  0.00    +0.241 C 
ATOM    105  O   VAL A  12      11.034  22.790  47.771  0.00  0.00    -0.273 OA
ATOM    106  N   ASP A  13      12.287  24.636  47.288  0.00  0.00    -0.297 N 
ATOM    107  H   ASP A  13      13.223  25.089  47.298  0.00  0.00    +0.150 HD
BRANCH 106 108
ATOM    108  CA  ASP A  13      11.120  25.346  46.754  0.00  0.00    +0.160 C 
BRANCH 108 109
ATOM    109  C   ASP A  13      10.439  24.505  45.665  0.00  0.00    +0.241 C 
ATOM    110  O   ASP A  13       9.222  24.306  45.686  0.00  0.00    -0.273 OA
ATOM    111  N   LEU A  14      11.224  24.001  44.716  0.00  0.00    -0.297 N 
ATOM    112  H   LEU A  14      12.242  24.210  44.748  0.00  0.00    +0.150 HD
BRANCH 111 113
ATOM    113  CA  LEU A  14      10.721  23.179  43.647  0.00  0.00    +0.149 C 
BRANCH 113 114
ATOM    114  C   LEU A  14       9.897  22.006  44.130  0.00  0.00    +0.241 C 
ATOM    115  N   ARG A  15      10.333  21.278  45.161  0.00  0.00    -0.297 N 
ATOM    116  H   ARG A  15      11.231  21.529  45.622  0.00  0.00    +0.150 HD
ATOM    117  O   LEU A  14       8.812  21.726  43.571  0.00  0.00    -0.273 OA
BRANCH 115 118
ATOM    118  CA  ARG A  15       9.571  20.141  45.648  0.00  0.00    +0.149 C 
BRANCH 118 119
ATOM    119  C   ARG A  15       8.360  20.583  46.448  0.00  0.00    +0.241 C 
ATOM    120  N   THR A  16       8.466  21.700  47.123  0.00  0.00    -0.295 N 
ATOM    121  H   THR A  16       9.358  22.234  47.090  0.00  0.00    +0.150 HD
ATOM    122  O   ARG A  15       7.388  19.853  46.447  0.00  0.00    -0.273 OA
BRANCH 120 123
ATOM    123  CA  THR A  16       7.354  22.211  47.922  0.00  0.00    +0.176 C 
BRANCH 123 124
ATOM    124  C   THR A  16       6.249  22.650  47.000  0.00  0.00    +0.243 C 
ATOM    125  O   THR A  16       5.087  22.279  47.207  0.00  0.00    -0.273 OA
ATOM    126  N   LEU A  17       6.557  23.363  45.921  0.00  0.00    -0.297 N 
ATOM    127  H   LEU A  17       7.547  23.613  45.722  0.00  0.00    +0.150 HD
BRANCH 126 128
ATOM    128  CA  LEU A  17       5.481  23.796  45.008  0.00  0.00    +0.149 C 
BRANCH 128 129
ATOM    129  C   LEU A  17       4.707  22.673  44.389  0.00  0.00    +0.241 C 
ATOM    130  O   LEU A  17       3.470  22.681  44.329  0.00  0.00    -0.273 OA
ATOM    131  N   LEU A  18       5.379  21.620  43.928  0.00  0.00    -0.298 N 
ATOM    132  H   LEU A  18       6.418  21.622  43.981  0.00  0.00    +0.150 HD
BRANCH 131 133
ATOM    133  CA  LEU A  18       4.704  20.465  43.351  0.00  0.00    +0.137 C 
BRANCH 133 134
ATOM    134  C   LEU A  18       3.586  19.991  44.285  0.00  0.00    +0.227 C 
ATOM    135  O   LEU A  18       2.559  19.567  43.804  0.00  0.00    -0.286 OA
ENDBRANCH 133 134
BRANCH 133 136
ATOM    136  CB  LEU A  18       5.646  19.259  43.268  0.00  0.00    +0.028 C 
BRANCH 136 137
ATOM    137  CG  LEU A  18       6.546  19.177  42.045  0.00  0.00    +0.002 C 
ATOM    138  CD2 LEU A  18       7.453  17.951  42.181  0.00  0.00    +0.000 C 
ATOM    139  CD1 LEU A  18       5.750  19.132  40.754  0.00  0.00    +0.000 C 
ENDBRANCH 136 137
ENDBRANCH 133 136
ENDBRANCH 131 133
ENDBRANCH 128 129
BRANCH 128 140
ATOM    140  CB  LEU A  17       6.056  24.751  43.978  0.00  0.00    +0.029 C 
BRANCH 140 141
ATOM    141  CG  LEU A  17       6.528  26.069  44.594  0.00  0.00    +0.002 C 
ATOM    142  CD2 LEU A  17       5.337  26.848  45.164  0.00  0.00    +0.000 C 
ATOM    143  CD1 LEU A  17       7.239  26.930  43.578  0.00  0.00    +0.000 C 
ENDBRANCH 140 141
ENDBRANCH 128 140
ENDBRANCH 126 128
ENDBRANCH 123 124
BRANCH 123 144
ATOM    144  CB  THR A  16       7.849  23.292  48.868  0.00  0.00    +0.137 C 
ATOM    145  CG2 THR A  16       6.798  24.134  49.538  0.00  0.00    +0.034 C 
BRANCH 144 146
ATOM    146  OG1 THR A  16       8.601  22.656  49.915  0.00  0.00    -0.382 OA
ATOM    147  HG1 THR A  16       8.934  23.343  50.545  0.00  0.00    +0.210 HD
ENDBRANCH 144 146
ENDBRANCH 123 144
ENDBRANCH 120 123
ENDBRANCH 118 119
BRANCH 118 148
ATOM    148  CB  ARG A  15      10.376  19.215  46.508  0.00  0.00    +0.033 C 
BRANCH 148 149
ATOM    149  CG  ARG A  15      10.867  17.964  45.817  0.00  0.00    +0.045 C 
BRANCH 149 150
ATOM    150  CD  ARG A  15      10.933  16.810  46.831  0.00  0.00    +0.174 C 
BRANCH 150 151
ATOM    151  NE  ARG A  15      11.241  17.276  48.181  0.00  0.00    -0.265 N 
ATOM    152  HE  ARG A  15      10.479  17.156  48.879  0.00  0.00    +0.259 HD
ATOM    153  CZ  ARG A  15      12.360  17.834  48.646  0.00  0.00    +0.342 C 
ATOM    154  NH2 ARG A  15      12.379  18.210  49.929  0.00  0.00    -0.292 N 
ATOM    155 HH21 ARG A  15      11.540  18.064  50.526  0.00  0.00    +0.255 HD
ATOM    156 HH22 ARG A  15      13.233  18.649  50.330  0.00  0.00    +0.255 HD
ATOM    157  NH1 ARG A  15      13.412  18.051  47.858  0.00  0.00    -0.292 N 
ATOM    158 HH11 ARG A  15      14.272  18.488  48.247  0.00  0.00    +0.255 HD
ATOM    159 HH12 ARG A  15      13.373  17.784  46.854  0.00  0.00    +0.255 HD
ENDBRANCH 150 151
ENDBRANCH 149 150
ENDBRANCH 148 149
ENDBRANCH 118 148
ENDBRANCH 115 118
ENDBRANCH 113 114
BRANCH 113 160
ATOM    160  CB  LEU A  14      11.789  22.756  42.633  0.00  0.00    +0.029 C 
BRANCH 160 161
ATOM    161  CG  LEU A  14      12.202  23.785  41.572  0.00  0.00    +0.002 C 
ATOM    162  CD2 LEU A  14      13.363  23.277  40.726  0.00  0.00    +0.000 C 
ATOM    163  CD1 LEU A  14      11.089  24.232  40.630  0.00  0.00    +0.000 C 
ENDBRANCH 160 161
ENDBRANCH 113 160
ENDBRANCH 111 113
ENDBRANCH 108 109
BRANCH 108 164
ATOM    164  CB  ASP A  13      11.502  26.676  46.134  0.00  0.00    +0.143 C 
BRANCH 164 165
ATOM    165  CG  ASP A  13      11.896  27.726  47.140  0.00  0.00    +0.367 C 
ATOM    166  OD2 ASP A  13      11.682  27.405  48.352  0.00  0.00    -0.246 OA
ATOM    167  OD1 ASP A  13      12.382  28.817  46.741  0.00  0.00    -0.246 OA
ENDBRANCH 164 165
ENDBRANCH 108 164
ENDBRANCH 106 108
ENDBRANCH 103 104
BRANCH 103 168
ATOM    168  CB  VAL A  12      13.679  23.026  49.716  0.00  0.00    +0.027 C 
ATOM    169  CG2 VAL A  12      12.575  22.748  50.710  0.00  0.00    +0.002 C 
ATOM    170  CG1 VAL A  12      14.976  22.289  50.108  0.00  0.00    +0.002 C 
ENDBRANCH 103 168
ENDBRANCH 100 103
ENDBRANCH  98  99
BRANCH  98 171
ATOM    171  CB  ARG A  11      16.785  21.736  45.661  0.00  0.00    +0.033 C 
BRANCH 171 172
ATOM    172  CG  ARG A  11      17.936  21.771  44.679  0.00  0.00    +0.045 C 
BRANCH 172 173
ATOM    173  CD  ARG A  11      19.002  20.773  45.131  0.00  0.00    +0.174 C 
BRANCH 173 174
ATOM    174  NE  ARG A  11      20.188  20.934  44.283  0.00  0.00    -0.265 N 
ATOM    175  CZ  ARG A  11      21.282  20.199  44.453  0.00  0.00    +0.342 C 
ATOM    176  NH2 ARG A  11      21.305  19.279  45.417  0.00  0.00    -0.292 N 
ATOM    177 HH21 ARG A  11      20.473  19.143  46.026  0.00  0.00    +0.255 HD
ATOM    178 HH22 ARG A  11      22.155  18.697  45.560  0.00  0.00    +0.255 HD
ATOM    179  NH1 ARG A  11      22.312  20.383  43.623  0.00  0.00    -0.292 N 
ATOM    180 HH11 ARG A  11      23.179  19.819  43.737  0.00  0.00    +0.255 HD
ATOM    181 HH12 ARG A  11      22.248  21.090  42.863  0.00  0.00    +0.255 HD
ATOM    182  HE  ARG A  11      20.172  21.646  43.525  0.00  0.00    +0.259 HD
ENDBRANCH 173 174
ENDBRANCH 172 173
ENDBRANCH 171 172
ENDBRANCH  98 171
ENDBRANCH  95  98
ENDBRANCH   1  94
BRANCH   1 183
ATOM    183  CB  PHE A  10      16.152  27.309  44.267  0.00  0.00    +0.055 C 
BRANCH 183 184
ATOM    184  CG  PHE A  10      15.920  28.792  44.438  0.00  0.00    -0.020 A 
ATOM    185  CD2 PHE A  10      16.867  29.582  45.042  0.00  0.00    -0.004 A 
ATOM    186  CE2 PHE A  10      16.641  30.936  45.243  0.00  0.00    -0.000 A 
ATOM    187  CZ  PHE A  10      15.455  31.516  44.857  0.00  0.00    -0.000 A 
ATOM    188  CE1 PHE A  10      14.505  30.732  44.242  0.00  0.00    -0.000 A 
ATOM    189  CD1 PHE A  10      14.731  29.378  44.045  0.00  0.00    -0.004 A 
ENDBRANCH 183 184
ENDBRANCH   1 183
TORSDOF 80
REMARK  Name = ../refined-set-2016/1fo0/1fo0_pocket.pdb
REMARK  423 active torsions:
REMARK  status: ('A' for Active; 'I' for Inactive)
REMARK    1  A    between atoms: _1  and  _3
REMARK    2  A    between atoms: _3  and  _4
REMARK    3  A    between atoms: _3  and  _6
REMARK    4  A    between atoms: _6  and  _7
REMARK    5  A    between atoms: _10  and  _12
REMARK    6  A    between atoms: _12  and  _13
REMARK    7  A    between atoms: _12  and  _15
REMARK    8  A    between atoms: _15  and  _16
REMARK    9  A    between atoms: _16  and  _17
REMARK   10  A    between atoms: _17  and  _18
REMARK   11  A    between atoms: _27  and  _29
REMARK   12  A    between atoms: _29  and  _30
REMARK   13  A    between atoms: _29  and  _32
REMARK   14  A    between atoms: _32  and  _33
REMARK   15  A    between atoms: _38  and  _39
REMARK   16  A    between atoms: _41  and  _43
REMARK   17  A    between atoms: _43  and  _44
REMARK   18  A    between atoms: _43  and  _46
REMARK   19  A    between atoms: _46  and  _47
REMARK   20  A    between atoms: _53  and  _55
REMARK   21  A    between atoms: _55  and  _56
REMARK   22  A    between atoms: _55  and  _58
REMARK   23  A    between atoms: _61  and  _63
REMARK   24  A    between atoms: _63  and  _64
REMARK   25  A    between atoms: _63  and  _66
REMARK   26  A    between atoms: _66  and  _67
REMARK   27  A    between atoms: _70  and  _72
REMARK   28  A    between atoms: _72  and  _73
REMARK   29  A    between atoms: _72  and  _75
REMARK   30  A    between atoms: _75  and  _76
REMARK   31  A    between atoms: _81  and  _82
REMARK   32  A    between atoms: _84  and  _86
REMARK   33  A    between atoms: _86  and  _87
REMARK   34  A    between atoms: _86  and  _89
REMARK   35  A    between atoms: _89  and  _90
REMARK   36  A    between atoms: _90  and  _91
REMARK   37  A    between atoms: _93  and  _95
REMARK   38  A    between atoms: _95  and  _96
REMARK   39  A    between atoms: _95  and  _98
REMARK   40  A    between atoms: _98  and  _99
REMARK   41  A    between atoms: _99  and  _100
REMARK   42  A    between atoms: _103  and  _105
REMARK   43  A    between atoms: _105  and  _106
REMARK   44  A    between atoms: _105  and  _108
REMARK   45  A    between atoms: _111  and  _113
REMARK   46  A    between atoms: _113  and  _114
REMARK   47  A    between atoms: _116  and  _118
REMARK   48  A    between atoms: _118  and  _119
REMARK   49  A    between atoms: _118  and  _121
REMARK   50  A    between atoms: _121  and  _122
REMARK   51  A    between atoms: _128  and  _130
REMARK   52  A    between atoms: _130  and  _131
REMARK   53  A    between atoms: _130  and  _133
REMARK   54  A    between atoms: _136  and  _138
REMARK   55  A    between atoms: _138  and  _139
REMARK   56  A    between atoms: _138  and  _141
REMARK   57  A    between atoms: _141  and  _142
REMARK   58  A    between atoms: _148  and  _150
REMARK   59  A    between atoms: _150  and  _151
REMARK   60  A    between atoms: _150  and  _153
REMARK   61  A    between atoms: _153  and  _154
REMARK   62  A    between atoms: _159  and  _160
REMARK   63  A    between atoms: _162  and  _164
REMARK   64  A    between atoms: _164  and  _165
REMARK   65  A    between atoms: _164  and  _167
REMARK   66  A    between atoms: _167  and  _168
REMARK   67  A    between atoms: _168  and  _169
REMARK   68  A    between atoms: _171  and  _173
REMARK   69  A    between atoms: _173  and  _174
REMARK   70  A    between atoms: _173  and  _176
REMARK   71  A    between atoms: _176  and  _177
REMARK   72  A    between atoms: _177  and  _178
REMARK   73  A    between atoms: _181  and  _183
REMARK   74  A    between atoms: _183  and  _184
REMARK   75  A    between atoms: _183  and  _186
REMARK   76  A    between atoms: _186  and  _187
REMARK   77  A    between atoms: _192  and  _193
REMARK   78  A    between atoms: _195  and  _197
REMARK   79  A    between atoms: _197  and  _198
REMARK   80  A    between atoms: _197  and  _200
REMARK   81  A    between atoms: _200  and  _201
REMARK   82  A    between atoms: _201  and  _202
REMARK   83  A    between atoms: _202  and  _203
REMARK   84  A    between atoms: _212  and  _214
REMARK   85  A    between atoms: _214  and  _215
REMARK   86  A    between atoms: _214  and  _217
REMARK   87  A    between atoms: _217  and  _218
REMARK   88  A    between atoms: _218  and  _219
REMARK   89  A    between atoms: _222  and  _224
REMARK   90  A    between atoms: _224  and  _225
REMARK   91  A    between atoms: _224  and  _227
REMARK   92  A    between atoms: _227  and  _228
REMARK   93  A    between atoms: _228  and  _229
REMARK   94  A    between atoms: _234  and  _236
REMARK   95  A    between atoms: _236  and  _237
REMARK   96  A    between atoms: _236  and  _239
REMARK   97  A    between atoms: _239  and  _240
REMARK   98  A    between atoms: _240  and  _241
REMARK   99  A    between atoms: _241  and  _242
REMARK  100  A    between atoms: _242  and  _243
REMARK  101  A    between atoms: _247  and  _249
REMARK  102  A    between atoms: _249  and  _250
REMARK  103  A    between atoms: _253  and  _255
REMARK  104  A    between atoms: _255  and  _256
REMARK  105  A    between atoms: _255  and  _258
REMARK  106  A    between atoms: _258  and  _259
REMARK  107  A    between atoms: _259  and  _260
REMARK  108  A    between atoms: _260  and  _261
REMARK  109  A    between atoms: _261  and  _262
REMARK  110  A    between atoms: _266  and  _268
REMARK  111  A    between atoms: _268  and  _269
REMARK  112  A    between atoms: _271  and  _273
REMARK  113  A    between atoms: _273  and  _274
REMARK  114  A    between atoms: _273  and  _276
REMARK  115  A    between atoms: _276  and  _277
REMARK  116  A    between atoms: _282  and  _284
REMARK  117  A    between atoms: _284  and  _285
REMARK  118  A    between atoms: _284  and  _287
REMARK  119  A    between atoms: _287  and  _288
REMARK  120  A    between atoms: _288  and  _289
REMARK  121  A    between atoms: _292  and  _294
REMARK  122  A    between atoms: _294  and  _295
REMARK  123  A    between atoms: _294  and  _297
REMARK  124  A    between atoms: _297  and  _298
REMARK  125  A    between atoms: _298  and  _299
REMARK  126  A    between atoms: _304  and  _306
REMARK  127  A    between atoms: _306  and  _307
REMARK  128  A    between atoms: _306  and  _309
REMARK  129  A    between atoms: _309  and  _310
REMARK  130  A    between atoms: _312  and  _314
REMARK  131  A    between atoms: _314  and  _315
REMARK  132  A    between atoms: _314  and  _317
REMARK  133  A    between atoms: _317  and  _318
REMARK  134  A    between atoms: _324  and  _326
REMARK  135  A    between atoms: _326  and  _327
REMARK  136  A    between atoms: _326  and  _329
REMARK  137  A    between atoms: _329  and  _330
REMARK  138  A    between atoms: _330  and  _331
REMARK  139  A    between atoms: _331  and  _332
REMARK  140  A    between atoms: _341  and  _343
REMARK  141  A    between atoms: _343  and  _344
REMARK  142  A    between atoms: _343  and  _346
REMARK  143  A    between atoms: _349  and  _351
REMARK  144  A    between atoms: _351  and  _352
REMARK  145  A    between atoms: _351  and  _354
REMARK  146  A    between atoms: _354  and  _355
REMARK  147  A    between atoms: _358  and  _360
REMARK  148  A    between atoms: _360  and  _361
REMARK  149  A    between atoms: _360  and  _363
REMARK  150  A    between atoms: _363  and  _364
REMARK  151  A    between atoms: _367  and  _369
REMARK  152  A    between atoms: _369  and  _370
REMARK  153  A    between atoms: _369  and  _372
REMARK  154  A    between atoms: _372  and  _373
REMARK  155  A    between atoms: _373  and  _374
REMARK  156  A    between atoms: _374  and  _375
REMARK  157  A    between atoms: _384  and  _386
REMARK  158  A    between atoms: _386  and  _387
REMARK  159  A    between atoms: _386  and  _389
REMARK  160  A    between atoms: _389  and  _390
REMARK  161  A    between atoms: _393  and  _395
REMARK  162  A    between atoms: _395  and  _396
REMARK  163  A    between atoms: _395  and  _398
REMARK  164  A    between atoms: _398  and  _399
REMARK  165  A    between atoms: _402  and  _404
REMARK  166  A    between atoms: _404  and  _405
REMARK  167  A    between atoms: _404  and  _407
REMARK  168  A    between atoms: _407  and  _408
REMARK  169  A    between atoms: _411  and  _413
REMARK  170  A    between atoms: _413  and  _414
REMARK  171  A    between atoms: _413  and  _416
REMARK  172  A    between atoms: _416  and  _417
REMARK  173  A    between atoms: _422  and  _423
REMARK  174  A    between atoms: _425  and  _427
REMARK  175  A    between atoms: _427  and  _428
REMARK  176  A    between atoms: _427  and  _430
REMARK  177  A    between atoms: _430  and  _431
REMARK  178  A    between atoms: _436  and  _437
REMARK  179  A    between atoms: _439  and  _441
REMARK  180  A    between atoms: _441  and  _442
REMARK  181  A    between atoms: _441  and  _444
REMARK  182  A    between atoms: _444  and  _445
REMARK  183  A    between atoms: _448  and  _450
REMARK  184  A    between atoms: _450  and  _451
REMARK  185  A    between atoms: _450  and  _453
REMARK  186  A    between atoms: _456  and  _458
REMARK  187  A    between atoms: _458  and  _459
REMARK  188  A    between atoms: _458  and  _461
REMARK  189  A    between atoms: _461  and  _462
REMARK  190  A    between atoms: _465  and  _467
REMARK  191  A    between atoms: _467  and  _468
REMARK  192  A    between atoms: _467  and  _470
REMARK  193  A    between atoms: _470  and  _471
REMARK  194  A    between atoms: _473  and  _475
REMARK  195  A    between atoms: _475  and  _476
REMARK  196  A    between atoms: _478  and  _480
REMARK  197  A    between atoms: _480  and  _481
REMARK  198  A    between atoms: _480  and  _483
REMARK  199  A    between atoms: _483  and  _484
REMARK  200  A    between atoms: _489  and  _490
REMARK  201  A    between atoms: _492  and  _494
REMARK  202  A    between atoms: _494  and  _495
REMARK  203  A    between atoms: _494  and  _497
REMARK  204  A    between atoms: _497  and  _498
REMARK  205  A    between atoms: _498  and  _499
REMARK  206  A    between atoms: _504  and  _506
REMARK  207  A    between atoms: _506  and  _507
REMARK  208  A    between atoms: _506  and  _509
REMARK  209  A    between atoms: _509  and  _510
REMARK  210  A    between atoms: _510  and  _511
REMARK  211  A    between atoms: _516  and  _518
REMARK  212  A    between atoms: _518  and  _519
REMARK  213  A    between atoms: _518  and  _521
REMARK  214  A    between atoms: _521  and  _522
REMARK  215  A    between atoms: _527  and  _528
REMARK  216  A    between atoms: _530  and  _532
REMARK  217  A    between atoms: _532  and  _533
REMARK  218  A    between atoms: _532  and  _535
REMARK  219  A    between atoms: _535  and  _536
REMARK  220  A    between atoms: _541  and  _542
REMARK  221  A    between atoms: _544  and  _546
REMARK  222  A    between atoms: _546  and  _547
REMARK  223  A    between atoms: _546  and  _549
REMARK  224  A    between atoms: _549  and  _550
REMARK  225  A    between atoms: _555  and  _556
REMARK  226  A    between atoms: _558  and  _560
REMARK  227  A    between atoms: _560  and  _561
REMARK  228  A    between atoms: _560  and  _563
REMARK  229  A    between atoms: _563  and  _564
REMARK  230  A    between atoms: _567  and  _569
REMARK  231  A    between atoms: _569  and  _570
REMARK  232  A    between atoms: _569  and  _572
REMARK  233  A    between atoms: _572  and  _573
REMARK  234  A    between atoms: _583  and  _585
REMARK  235  A    between atoms: _585  and  _586
REMARK  236  A    between atoms: _589  and  _591
REMARK  237  A    between atoms: _591  and  _592
REMARK  238  A    between atoms: _595  and  _597
REMARK  239  A    between atoms: _597  and  _598
REMARK  240  A    between atoms: _597  and  _600
REMARK  241  A    between atoms: _600  and  _601
REMARK  242  A    between atoms: _604  and  _606
REMARK  243  A    between atoms: _606  and  _607
REMARK  244  A    between atoms: _606  and  _609
REMARK  245  A    between atoms: _609  and  _610
REMARK  246  A    between atoms: _613  and  _615
REMARK  247  A    between atoms: _615  and  _616
REMARK  248  A    between atoms: _615  and  _618
REMARK  249  A    between atoms: _618  and  _619
REMARK  250  A    between atoms: _622  and  _624
REMARK  251  A    between atoms: _624  and  _625
REMARK  252  A    between atoms: _624  and  _627
REMARK  253  A    between atoms: _627  and  _628
REMARK  254  A    between atoms: _628  and  _629
REMARK  255  A    between atoms: _629  and  _630
REMARK  256  A    between atoms: _630  and  _631
REMARK  257  A    between atoms: _635  and  _637
REMARK  258  A    between atoms: _637  and  _638
REMARK  259  A    between atoms: _637  and  _640
REMARK  260  A    between atoms: _640  and  _641
REMARK  261  A    between atoms: _646  and  _648
REMARK  262  A    between atoms: _648  and  _649
REMARK  263  A    between atoms: _648  and  _651
REMARK  264  A    between atoms: _651  and  _652
REMARK  265  A    between atoms: _652  and  _653
REMARK  266  A    between atoms: _653  and  _654
REMARK  267  A    between atoms: _654  and  _655
REMARK  268  A    between atoms: _659  and  _661
REMARK  269  A    between atoms: _661  and  _662
REMARK  270  A    between atoms: _661  and  _664
REMARK  271  A    between atoms: _664  and  _665
REMARK  272  A    between atoms: _675  and  _677
REMARK  273  A    between atoms: _677  and  _678
REMARK  274  A    between atoms: _681  and  _683
REMARK  275  A    between atoms: _683  and  _684
REMARK  276  A    between atoms: _686  and  _688
REMARK  277  A    between atoms: _688  and  _689
REMARK  278  A    between atoms: _688  and  _691
REMARK  279  A    between atoms: _691  and  _692
REMARK  280  A    between atoms: _692  and  _693
REMARK  281  A    between atoms: _696  and  _698
REMARK  282  A    between atoms: _698  and  _699
REMARK  283  A    between atoms: _702  and  _704
REMARK  284  A    between atoms: _704  and  _705
REMARK  285  A    between atoms: _704  and  _707
REMARK  286  A    between atoms: _707  and  _708
REMARK  287  A    between atoms: _708  and  _709
REMARK  288  A    between atoms: _712  and  _714
REMARK  289  A    between atoms: _714  and  _715
REMARK  290  A    between atoms: _714  and  _717
REMARK  291  A    between atoms: _717  and  _718
REMARK  292  A    between atoms: _718  and  _719
REMARK  293  A    between atoms: _719  and  _720
REMARK  294  A    between atoms: _729  and  _731
REMARK  295  A    between atoms: _731  and  _732
REMARK  296  A    between atoms: _731  and  _734
REMARK  297  A    between atoms: _734  and  _735
REMARK  298  A    between atoms: _738  and  _740
REMARK  299  A    between atoms: _740  and  _741
REMARK  300  A    between atoms: _740  and  _743
REMARK  301  A    between atoms: _743  and  _744
REMARK  302  A    between atoms: _744  and  _745
REMARK  303  A    between atoms: _745  and  _746
REMARK  304  A    between atoms: _755  and  _757
REMARK  305  A    between atoms: _757  and  _758
REMARK  306  A    between atoms: _761  and  _763
REMARK  307  A    between atoms: _763  and  _764
REMARK  308  A    between atoms: _763  and  _766
REMARK  309  A    between atoms: _766  and  _767
REMARK  310  A    between atoms: _772  and  _773
REMARK  311  A    between atoms: _775  and  _777
REMARK  312  A    between atoms: _777  and  _778
REMARK  313  A    between atoms: _777  and  _780
REMARK  314  A    between atoms: _780  and  _781
REMARK  315  A    between atoms: _784  and  _786
REMARK  316  A    between atoms: _786  and  _787
REMARK  317  A    between atoms: _786  and  _789
REMARK  318  A    between atoms: _789  and  _790
REMARK  319  A    between atoms: _793  and  _795
REMARK  320  A    between atoms: _795  and  _796
REMARK  321  A    between atoms: _795  and  _798
REMARK  322  A    between atoms: _800  and  _802
REMARK  323  A    between atoms: _802  and  _803
REMARK  324  A    between atoms: _802  and  _805
REMARK  325  A    between atoms: _808  and  _810
REMARK  326  A    between atoms: _810  and  _811
REMARK  327  A    between atoms: _810  and  _813
REMARK  328  A    between atoms: _813  and  _814
REMARK  329  A    between atoms: _814  and  _815
REMARK  330  A    between atoms: _818  and  _820
REMARK  331  A    between atoms: _820  and  _821
REMARK  332  A    between atoms: _820  and  _823
REMARK  333  A    between atoms: _823  and  _824
REMARK  334  A    between atoms: _834  and  _836
REMARK  335  A    between atoms: _836  and  _837
REMARK  336  A    between atoms: _836  and  _839
REMARK  337  A    between atoms: _839  and  _840
REMARK  338  A    between atoms: _843  and  _845
REMARK  339  A    between atoms: _845  and  _846
REMARK  340  A    between atoms: _845  and  _848
REMARK  341  A    between atoms: _848  and  _849
REMARK  342  A    between atoms: _849  and  _850
REMARK  343  A    between atoms: _850  and  _851
REMARK  344  A    between atoms: _860  and  _862
REMARK  345  A    between atoms: _862  and  _863
REMARK  346  A    between atoms: _862  and  _865
REMARK  347  A    between atoms: _865  and  _866
REMARK  348  A    between atoms: _871  and  _872
REMARK  349  A    between atoms: _874  and  _876
REMARK  350  A    between atoms: _876  and  _877
REMARK  351  A    between atoms: _876  and  _879
REMARK  352  A    between atoms: _879  and  _880
REMARK  353  A    between atoms: _880  and  _881
REMARK  354  A    between atoms: _886  and  _888
REMARK  355  A    between atoms: _888  and  _889
REMARK  356  A    between atoms: _888  and  _891
REMARK  357  A    between atoms: _891  and  _892
REMARK  358  A    between atoms: _895  and  _897
REMARK  359  A    between atoms: _897  and  _898
REMARK  360  A    between atoms: _897  and  _900
REMARK  361  A    between atoms: _900  and  _901
REMARK  362  A    between atoms: _903  and  _905
REMARK  363  A    between atoms: _905  and  _906
REMARK  364  A    between atoms: _905  and  _908
REMARK  365  A    between atoms: _908  and  _909
REMARK  366  A    between atoms: _911  and  _913
REMARK  367  A    between atoms: _913  and  _914
REMARK  368  A    between atoms: _913  and  _916
REMARK  369  A    between atoms: _916  and  _917
REMARK  370  A    between atoms: _923  and  _925
REMARK  371  A    between atoms: _925  and  _926
REMARK  372  A    between atoms: _925  and  _928
REMARK  373  A    between atoms: _928  and  _929
REMARK  374  A    between atoms: _929  and  _930
REMARK  375  A    between atoms: _930  and  _931
REMARK  376  A    between atoms: _940  and  _942
REMARK  377  A    between atoms: _942  and  _943
REMARK  378  A    between atoms: _942  and  _945
REMARK  379  A    between atoms: _945  and  _946
REMARK  380  A    between atoms: _946  and  _947
REMARK  381  A    between atoms: _947  and  _948
REMARK  382  A    between atoms: _957  and  _959
REMARK  383  A    between atoms: _959  and  _960
REMARK  384  A    between atoms: _962  and  _964
REMARK  385  A    between atoms: _964  and  _965
REMARK  386  A    between atoms: _964  and  _967
REMARK  387  A    between atoms: _967  and  _968
REMARK  388  A    between atoms: _974  and  _975
REMARK  389  A    between atoms: _980  and  _982
REMARK  390  A    between atoms: _982  and  _983
REMARK  391  A    between atoms: _982  and  _985
REMARK  392  A    between atoms: _985  and  _986
REMARK  393  A    between atoms: _996  and  _998
REMARK  394  A    between atoms: _998  and  _999
REMARK  395  A    between atoms: _998  and  _1001
REMARK  396  A    between atoms: _1001  and  _1002
REMARK  397  A    between atoms: _1002  and  _1003
REMARK  398  A    between atoms: _1003  and  _1004
REMARK  399  A    between atoms: _1013  and  _1015
REMARK  400  A    between atoms: _1015  and  _1016
REMARK  401  A    between atoms: _1015  and  _1018
REMARK  402  A    between atoms: _1018  and  _1019
REMARK  403  A    between atoms: _1021  and  _1023
REMARK  404  A    between atoms: _1023  and  _1024
REMARK  405  A    between atoms: _1027  and  _1029
REMARK  406  A    between atoms: _1029  and  _1030
REMARK  407  A    between atoms: _1029  and  _1032
REMARK  408  A    between atoms: _1032  and  _1033
REMARK  409  A    between atoms: _1036  and  _1038
REMARK  410  A    between atoms: _1038  and  _1039
REMARK  411  A    between atoms: _1038  and  _1041
REMARK  412  A    between atoms: _1041  and  _1042
REMARK  413  A    between atoms: _1042  and  _1043
REMARK  414  A    between atoms: _1043  and  _1044
REMARK  415  A    between atoms: _1053  and  _1055
REMARK  416  A    between atoms: _1055  and  _1056
REMARK  417  A    between atoms: _1055  and  _1058
REMARK  418  A    between atoms: _1061  and  _1063
REMARK  419  A    between atoms: _1063  and  _1064
REMARK  420  A    between atoms: _1066  and  _1068
REMARK  421  A    between atoms: _1068  and  _1069
REMARK  422  A    between atoms: _1068  and  _1071
REMARK  423  A    between atoms: _1071  and  _1072
REMARK                            x       y       z     vdW  Elec       q    Type
REMARK                         _______ _______ _______ _____ _____    ______ ____
ROOT
ATOM      1  C   TYR A   1       0.063  22.824  45.601  0.00  0.00    +0.239 C 
ATOM      2  O   TYR A   1      -1.135  22.999  45.791  0.00  0.00    -0.274 OA
ATOM      3  N   TYR A   2       0.576  22.585  44.418  0.00  0.00    -0.298 N 
ATOM      4  H   TYR A   2       1.603  22.449  44.323  0.00  0.00    +0.150 HD
ENDROOT
BRANCH   1   5
ATOM      5  CA  TYR A   1       1.047  22.908  46.776  0.00  0.00    +0.149 C 
BRANCH   5   6
ATOM      6  N   TYR A   1       2.088  21.890  46.655  0.00  0.00    -0.238 NA
ATOM      7  H   TYR A   1       3.086  22.170  46.566  0.00  0.00    +0.142 HD
ENDBRANCH   5   6
BRANCH   5   8
ATOM      8  CB  TYR A   1       1.530  24.338  46.833  0.00  0.00    +0.053 C 
BRANCH   8   9
ATOM      9  CG  TYR A   1       2.343  24.814  47.987  0.00  0.00    -0.020 A 
ATOM     10  CD2 TYR A   1       2.480  24.103  49.168  0.00  0.00    -0.001 A 
ATOM     11  CE2 TYR A   1       3.237  24.591  50.227  0.00  0.00    +0.036 A 
ATOM     12  CZ  TYR A   1       3.847  25.816  50.110  0.00  0.00    +0.134 A 
ATOM     13  CE1 TYR A   1       3.731  26.557  48.944  0.00  0.00    +0.036 A 
ATOM     14  CD1 TYR A   1       2.985  26.049  47.899  0.00  0.00    -0.001 A 
BRANCH  12  15
ATOM     15  OH  TYR A   1       4.595  26.312  51.159  0.00  0.00    -0.506 OA
ATOM     16  HH  TYR A   1       5.529  26.447  50.861  0.00  0.00    +0.292 HD
ENDBRANCH  12  15
ENDBRANCH   8   9
ENDBRANCH   5   8
ENDBRANCH   1   5
BRANCH   3  17
ATOM     17  CA  TYR A   2      -0.274  22.506  43.229  0.00  0.00    +0.141 C 
BRANCH  17  18
ATOM     18  C   TYR A   2      -0.641  21.084  42.860  0.00  0.00    +0.227 C 
ATOM     19  O   TYR A   2      -1.267  20.792  41.836  0.00  0.00    -0.286 OA
ENDBRANCH  17  18
BRANCH  17  20
ATOM     20  CB  TYR A   2       0.531  23.166  42.095  0.00  0.00    +0.054 C 
BRANCH  20  21
ATOM     21  CG  TYR A   2       0.734  24.644  42.299  0.00  0.00    -0.020 A 
ATOM     22  CD2 TYR A   2       1.950  25.186  42.697  0.00  0.00    -0.001 A 
ATOM     23  CE2 TYR A   2       2.105  26.560  42.848  0.00  0.00    +0.036 A 
ATOM     24  CZ  TYR A   2       1.049  27.412  42.619  0.00  0.00    +0.134 A 
ATOM     25  CE1 TYR A   2      -0.165  26.896  42.216  0.00  0.00    +0.036 A 
ATOM     26  CD1 TYR A   2      -0.313  25.532  42.059  0.00  0.00    -0.001 A 
BRANCH  24  27
ATOM     27  OH  TYR A   2       1.182  28.773  42.771  0.00  0.00    -0.506 OA
ATOM     28  HH  TYR A   2       0.320  29.213  42.563  0.00  0.00    +0.292 HD
ENDBRANCH  24  27
ENDBRANCH  20  21
ENDBRANCH  17  20
ENDBRANCH   3  17
TORSDOF 10
REMARK  Name = ../refined-set-2016/1fo0/1fo0_pocket.pdb
REMARK  423 active torsions:
REMARK  status: ('A' for Active; 'I' for Inactive)
REMARK    1  A    between atoms: _1  and  _3
REMARK    2  A    between atoms: _3  and  _4
REMARK    3  A    between atoms: _3  and  _6
REMARK    4  A    between atoms: _6  and  _7
REMARK    5  A    between atoms: _10  and  _12
REMARK    6  A    between atoms: _12  and  _13
REMARK    7  A    between atoms: _12  and  _15
REMARK    8  A    between atoms: _15  and  _16
REMARK    9  A    between atoms: _16  and  _17
REMARK   10  A    between atoms: _17  and  _18
REMARK   11  A    between atoms: _27  and  _29
REMARK   12  A    between atoms: _29  and  _30
REMARK   13  A    between atoms: _29  and  _32
REMARK   14  A    between atoms: _32  and  _33
REMARK   15  A    between atoms: _38  and  _39
REMARK   16  A    between atoms: _41  and  _43
REMARK   17  A    between atoms: _43  and  _44
REMARK   18  A    between atoms: _43  and  _46
REMARK   19  A    between atoms: _46  and  _47
REMARK   20  A    between atoms: _53  and  _55
REMARK   21  A    between atoms: _55  and  _56
REMARK   22  A    between atoms: _55  and  _58
REMARK   23  A    between atoms: _61  and  _63
REMARK   24  A    between atoms: _63  and  _64
REMARK   25  A    between atoms: _63  and  _66
REMARK   26  A    between atoms: _66  and  _67
REMARK   27  A    between atoms: _70  and  _72
REMARK   28  A    between atoms: _72  and  _73
REMARK   29  A    between atoms: _72  and  _75
REMARK   30  A    between atoms: _75  and  _76
REMARK   31  A    between atoms: _81  and  _82
REMARK   32  A    between atoms: _84  and  _86
REMARK   33  A    between atoms: _86  and  _87
REMARK   34  A    between atoms: _86  and  _89
REMARK   35  A    between atoms: _89  and  _90
REMARK   36  A    between atoms: _90  and  _91
REMARK   37  A    between atoms: _93  and  _95
REMARK   38  A    between atoms: _95  and  _96
REMARK   39  A    between atoms: _95  and  _98
REMARK   40  A    between atoms: _98  and  _99
REMARK   41  A    between atoms: _99  and  _100
REMARK   42  A    between atoms: _103  and  _105
REMARK   43  A    between atoms: _105  and  _106
REMARK   44  A    between atoms: _105  and  _108
REMARK   45  A    between atoms: _111  and  _113
REMARK   46  A    between atoms: _113  and  _114
REMARK   47  A    between atoms: _116  and  _118
REMARK   48  A    between atoms: _118  and  _119
REMARK   49  A    between atoms: _118  and  _121
REMARK   50  A    between atoms: _121  and  _122
REMARK   51  A    between atoms: _128  and  _130
REMARK   52  A    between atoms: _130  and  _131
REMARK   53  A    between atoms: _130  and  _133
REMARK   54  A    between atoms: _136  and  _138
REMARK   55  A    between atoms: _138  and  _139
REMARK   56  A    between atoms: _138  and  _141
REMARK   57  A    between atoms: _141  and  _142
REMARK   58  A    between atoms: _148  and  _150
REMARK   59  A    between atoms: _150  and  _151
REMARK   60  A    between atoms: _150  and  _153
REMARK   61  A    between atoms: _153  and  _154
REMARK   62  A    between atoms: _159  and  _160
REMARK   63  A    between atoms: _162  and  _164
REMARK   64  A    between atoms: _164  and  _165
REMARK   65  A    between atoms: _164  and  _167
REMARK   66  A    between atoms: _167  and  _168
REMARK   67  A    between atoms: _168  and  _169
REMARK   68  A    between atoms: _171  and  _173
REMARK   69  A    between atoms: _173  and  _174
REMARK   70  A    between atoms: _173  and  _176
REMARK   71  A    between atoms: _176  and  _177
REMARK   72  A    between atoms: _177  and  _178
REMARK   73  A    between atoms: _181  and  _183
REMARK   74  A    between atoms: _183  and  _184
REMARK   75  A    between atoms: _183  and  _186
REMARK   76  A    between atoms: _186  and  _187
REMARK   77  A    between atoms: _192  and  _193
REMARK   78  A    between atoms: _195  and  _197
REMARK   79  A    between atoms: _197  and  _198
REMARK   80  A    between atoms: _197  and  _200
REMARK   81  A    between atoms: _200  and  _201
REMARK   82  A    between atoms: _201  and  _202
REMARK   83  A    between atoms: _202  and  _203
REMARK   84  A    between atoms: _212  and  _214
REMARK   85  A    between atoms: _214  and  _215
REMARK   86  A    between atoms: _214  and  _217
REMARK   87  A    between atoms: _217  and  _218
REMARK   88  A    between atoms: _218  and  _219
REMARK   89  A    between atoms: _222  and  _224
REMARK   90  A    between atoms: _224  and  _225
REMARK   91  A    between atoms: _224  and  _227
REMARK   92  A    between atoms: _227  and  _228
REMARK   93  A    between atoms: _228  and  _229
REMARK   94  A    between atoms: _234  and  _236
REMARK   95  A    between atoms: _236  and  _237
REMARK   96  A    between atoms: _236  and  _239
REMARK   97  A    between atoms: _239  and  _240
REMARK   98  A    between atoms: _240  and  _241
REMARK   99  A    between atoms: _241  and  _242
REMARK  100  A    between atoms: _242  and  _243
REMARK  101  A    between atoms: _247  and  _249
REMARK  102  A    between atoms: _249  and  _250
REMARK  103  A    between atoms: _253  and  _255
REMARK  104  A    between atoms: _255  and  _256
REMARK  105  A    between atoms: _255  and  _258
REMARK  106  A    between atoms: _258  and  _259
REMARK  107  A    between atoms: _259  and  _260
REMARK  108  A    between atoms: _260  and  _261
REMARK  109  A    between atoms: _261  and  _262
REMARK  110  A    between atoms: _266  and  _268
REMARK  111  A    between atoms: _268  and  _269
REMARK  112  A    between atoms: _271  and  _273
REMARK  113  A    between atoms: _273  and  _274
REMARK  114  A    between atoms: _273  and  _276
REMARK  115  A    between atoms: _276  and  _277
REMARK  116  A    between atoms: _282  and  _284
REMARK  117  A    between atoms: _284  and  _285
REMARK  118  A    between atoms: _284  and  _287
REMARK  119  A    between atoms: _287  and  _288
REMARK  120  A    between atoms: _288  and  _289
REMARK  121  A    between atoms: _292  and  _294
REMARK  122  A    between atoms: _294  and  _295
REMARK  123  A    between atoms: _294  and  _297
REMARK  124  A    between atoms: _297  and  _298
REMARK  125  A    between atoms: _298  and  _299
REMARK  126  A    between atoms: _304  and  _306
REMARK  127  A    between atoms: _306  and  _307
REMARK  128  A    between atoms: _306  and  _309
REMARK  129  A    between atoms: _309  and  _310
REMARK  130  A    between atoms: _312  and  _314
REMARK  131  A    between atoms: _314  and  _315
REMARK  132  A    between atoms: _314  and  _317
REMARK  133  A    between atoms: _317  and  _318
REMARK  134  A    between atoms: _324  and  _326
REMARK  135  A    between atoms: _326  and  _327
REMARK  136  A    between atoms: _326  and  _329
REMARK  137  A    between atoms: _329  and  _330
REMARK  138  A    between atoms: _330  and  _331
REMARK  139  A    between atoms: _331  and  _332
REMARK  140  A    between atoms: _341  and  _343
REMARK  141  A    between atoms: _343  and  _344
REMARK  142  A    between atoms: _343  and  _346
REMARK  143  A    between atoms: _349  and  _351
REMARK  144  A    between atoms: _351  and  _352
REMARK  145  A    between atoms: _351  and  _354
REMARK  146  A    between atoms: _354  and  _355
REMARK  147  A    between atoms: _358  and  _360
REMARK  148  A    between atoms: _360  and  _361
REMARK  149  A    between atoms: _360  and  _363
REMARK  150  A    between atoms: _363  and  _364
REMARK  151  A    between atoms: _367  and  _369
REMARK  152  A    between atoms: _369  and  _370
REMARK  153  A    between atoms: _369  and  _372
REMARK  154  A    between atoms: _372  and  _373
REMARK  155  A    between atoms: _373  and  _374
REMARK  156  A    between atoms: _374  and  _375
REMARK  157  A    between atoms: _384  and  _386
REMARK  158  A    between atoms: _386  and  _387
REMARK  159  A    between atoms: _386  and  _389
REMARK  160  A    between atoms: _389  and  _390
REMARK  161  A    between atoms: _393  and  _395
REMARK  162  A    between atoms: _395  and  _396
REMARK  163  A    between atoms: _395  and  _398
REMARK  164  A    between atoms: _398  and  _399
REMARK  165  A    between atoms: _402  and  _404
REMARK  166  A    between atoms: _404  and  _405
REMARK  167  A    between atoms: _404  and  _407
REMARK  168  A    between atoms: _407  and  _408
REMARK  169  A    between atoms: _411  and  _413
REMARK  170  A    between atoms: _413  and  _414
REMARK  171  A    between atoms: _413  and  _416
REMARK  172  A    between atoms: _416  and  _417
REMARK  173  A    between atoms: _422  and  _423
REMARK  174  A    between atoms: _425  and  _427
REMARK  175  A    between atoms: _427  and  _428
REMARK  176  A    between atoms: _427  and  _430
REMARK  177  A    between atoms: _430  and  _431
REMARK  178  A    between atoms: _436  and  _437
REMARK  179  A    between atoms: _439  and  _441
REMARK  180  A    between atoms: _441  and  _442
REMARK  181  A    between atoms: _441  and  _444
REMARK  182  A    between atoms: _444  and  _445
REMARK  183  A    between atoms: _448  and  _450
REMARK  184  A    between atoms: _450  and  _451
REMARK  185  A    between atoms: _450  and  _453
REMARK  186  A    between atoms: _456  and  _458
REMARK  187  A    between atoms: _458  and  _459
REMARK  188  A    between atoms: _458  and  _461
REMARK  189  A    between atoms: _461  and  _462
REMARK  190  A    between atoms: _465  and  _467
REMARK  191  A    between atoms: _467  and  _468
REMARK  192  A    between atoms: _467  and  _470
REMARK  193  A    between atoms: _470  and  _471
REMARK  194  A    between atoms: _473  and  _475
REMARK  195  A    between atoms: _475  and  _476
REMARK  196  A    between atoms: _478  and  _480
REMARK  197  A    between atoms: _480  and  _481
REMARK  198  A    between atoms: _480  and  _483
REMARK  199  A    between atoms: _483  and  _484
REMARK  200  A    between atoms: _489  and  _490
REMARK  201  A    between atoms: _492  and  _494
REMARK  202  A    between atoms: _494  and  _495
REMARK  203  A    between atoms: _494  and  _497
REMARK  204  A    between atoms: _497  and  _498
REMARK  205  A    between atoms: _498  and  _499
REMARK  206  A    between atoms: _504  and  _506
REMARK  207  A    between atoms: _506  and  _507
REMARK  208  A    between atoms: _506  and  _509
REMARK  209  A    between atoms: _509  and  _510
REMARK  210  A    between atoms: _510  and  _511
REMARK  211  A    between atoms: _516  and  _518
REMARK  212  A    between atoms: _518  and  _519
REMARK  213  A    between atoms: _518  and  _521
REMARK  214  A    between atoms: _521  and  _522
REMARK  215  A    between atoms: _527  and  _528
REMARK  216  A    between atoms: _530  and  _532
REMARK  217  A    between atoms: _532  and  _533
REMARK  218  A    between atoms: _532  and  _535
REMARK  219  A    between atoms: _535  and  _536
REMARK  220  A    between atoms: _541  and  _542
REMARK  221  A    between atoms: _544  and  _546
REMARK  222  A    between atoms: _546  and  _547
REMARK  223  A    between atoms: _546  and  _549
REMARK  224  A    between atoms: _549  and  _550
REMARK  225  A    between atoms: _555  and  _556
REMARK  226  A    between atoms: _558  and  _560
REMARK  227  A    between atoms: _560  and  _561
REMARK  228  A    between atoms: _560  and  _563
REMARK  229  A    between atoms: _563  and  _564
REMARK  230  A    between atoms: _567  and  _569
REMARK  231  A    between atoms: _569  and  _570
REMARK  232  A    between atoms: _569  and  _572
REMARK  233  A    between atoms: _572  and  _573
REMARK  234  A    between atoms: _583  and  _585
REMARK  235  A    between atoms: _585  and  _586
REMARK  236  A    between atoms: _589  and  _591
REMARK  237  A    between atoms: _591  and  _592
REMARK  238  A    between atoms: _595  and  _597
REMARK  239  A    between atoms: _597  and  _598
REMARK  240  A    between atoms: _597  and  _600
REMARK  241  A    between atoms: _600  and  _601
REMARK  242  A    between atoms: _604  and  _606
REMARK  243  A    between atoms: _606  and  _607
REMARK  244  A    between atoms: _606  and  _609
REMARK  245  A    between atoms: _609  and  _610
REMARK  246  A    between atoms: _613  and  _615
REMARK  247  A    between atoms: _615  and  _616
REMARK  248  A    between atoms: _615  and  _618
REMARK  249  A    between atoms: _618  and  _619
REMARK  250  A    between atoms: _622  and  _624
REMARK  251  A    between atoms: _624  and  _625
REMARK  252  A    between atoms: _624  and  _627
REMARK  253  A    between atoms: _627  and  _628
REMARK  254  A    between atoms: _628  and  _629
REMARK  255  A    between atoms: _629  and  _630
REMARK  256  A    between atoms: _630  and  _631
REMARK  257  A    between atoms: _635  and  _637
REMARK  258  A    between atoms: _637  and  _638
REMARK  259  A    between atoms: _637  and  _640
REMARK  260  A    between atoms: _640  and  _641
REMARK  261  A    between atoms: _646  and  _648
REMARK  262  A    between atoms: _648  and  _649
REMARK  263  A    between atoms: _648  and  _651
REMARK  264  A    between atoms: _651  and  _652
REMARK  265  A    between atoms: _652  and  _653
REMARK  266  A    between atoms: _653  and  _654
REMARK  267  A    between atoms: _654  and  _655
REMARK  268  A    between atoms: _659  and  _661
REMARK  269  A    between atoms: _661  and  _662
REMARK  270  A    between atoms: _661  and  _664
REMARK  271  A    between atoms: _664  and  _665
REMARK  272  A    between atoms: _675  and  _677
REMARK  273  A    between atoms: _677  and  _678
REMARK  274  A    between atoms: _681  and  _683
REMARK  275  A    between atoms: _683  and  _684
REMARK  276  A    between atoms: _686  and  _688
REMARK  277  A    between atoms: _688  and  _689
REMARK  278  A    between atoms: _688  and  _691
REMARK  279  A    between atoms: _691  and  _692
REMARK  280  A    between atoms: _692  and  _693
REMARK  281  A    between atoms: _696  and  _698
REMARK  282  A    between atoms: _698  and  _699
REMARK  283  A    between atoms: _702  and  _704
REMARK  284  A    between atoms: _704  and  _705
REMARK  285  A    between atoms: _704  and  _707
REMARK  286  A    between atoms: _707  and  _708
REMARK  287  A    between atoms: _708  and  _709
REMARK  288  A    between atoms: _712  and  _714
REMARK  289  A    between atoms: _714  and  _715
REMARK  290  A    between atoms: _714  and  _717
REMARK  291  A    between atoms: _717  and  _718
REMARK  292  A    between atoms: _718  and  _719
REMARK  293  A    between atoms: _719  and  _720
REMARK  294  A    between atoms: _729  and  _731
REMARK  295  A    between atoms: _731  and  _732
REMARK  296  A    between atoms: _731  and  _734
REMARK  297  A    between atoms: _734  and  _735
REMARK  298  A    between atoms: _738  and  _740
REMARK  299  A    between atoms: _740  and  _741
REMARK  300  A    between atoms: _740  and  _743
REMARK  301  A    between atoms: _743  and  _744
REMARK  302  A    between atoms: _744  and  _745
REMARK  303  A    between atoms: _745  and  _746
REMARK  304  A    between atoms: _755  and  _757
REMARK  305  A    between atoms: _757  and  _758
REMARK  306  A    between atoms: _761  and  _763
REMARK  307  A    between atoms: _763  and  _764
REMARK  308  A    between atoms: _763  and  _766
REMARK  309  A    between atoms: _766  and  _767
REMARK  310  A    between atoms: _772  and  _773
REMARK  311  A    between atoms: _775  and  _777
REMARK  312  A    between atoms: _777  and  _778
REMARK  313  A    between atoms: _777  and  _780
REMARK  314  A    between atoms: _780  and  _781
REMARK  315  A    between atoms: _784  and  _786
REMARK  316  A    between atoms: _786  and  _787
REMARK  317  A    between atoms: _786  and  _789
REMARK  318  A    between atoms: _789  and  _790
REMARK  319  A    between atoms: _793  and  _795
REMARK  320  A    between atoms: _795  and  _796
REMARK  321  A    between atoms: _795  and  _798
REMARK  322  A    between atoms: _800  and  _802
REMARK  323  A    between atoms: _802  and  _803
REMARK  324  A    between atoms: _802  and  _805
REMARK  325  A    between atoms: _808  and  _810
REMARK  326  A    between atoms: _810  and  _811
REMARK  327  A    between atoms: _810  and  _813
REMARK  328  A    between atoms: _813  and  _814
REMARK  329  A    between atoms: _814  and  _815
REMARK  330  A    between atoms: _818  and  _820
REMARK  331  A    between atoms: _820  and  _821
REMARK  332  A    between atoms: _820  and  _823
REMARK  333  A    between atoms: _823  and  _824
REMARK  334  A    between atoms: _834  and  _836
REMARK  335  A    between atoms: _836  and  _837
REMARK  336  A    between atoms: _836  and  _839
REMARK  337  A    between atoms: _839  and  _840
REMARK  338  A    between atoms: _843  and  _845
REMARK  339  A    between atoms: _845  and  _846
REMARK  340  A    between atoms: _845  and  _848
REMARK  341  A    between atoms: _848  and  _849
REMARK  342  A    between atoms: _849  and  _850
REMARK  343  A    between atoms: _850  and  _851
REMARK  344  A    between atoms: _860  and  _862
REMARK  345  A    between atoms: _862  and  _863
REMARK  346  A    between atoms: _862  and  _865
REMARK  347  A    between atoms: _865  and  _866
REMARK  348  A    between atoms: _871  and  _872
REMARK  349  A    between atoms: _874  and  _876
REMARK  350  A    between atoms: _876  and  _877
REMARK  351  A    between atoms: _876  and  _879
REMARK  352  A    between atoms: _879  and  _880
REMARK  353  A    between atoms: _880  and  _881
REMARK  354  A    between atoms: _886  and  _888
REMARK  355  A    between atoms: _888  and  _889
REMARK  356  A    between atoms: _888  and  _891
REMARK  357  A    between atoms: _891  and  _892
REMARK  358  A    between atoms: _895  and  _897
REMARK  359  A    between atoms: _897  and  _898
REMARK  360  A    between atoms: _897  and  _900
REMARK  361  A    between atoms: _900  and  _901
REMARK  362  A    between atoms: _903  and  _905
REMARK  363  A    between atoms: _905  and  _906
REMARK  364  A    between atoms: _905  and  _908
REMARK  365  A    between atoms: _908  and  _909
REMARK  366  A    between atoms: _911  and  _913
REMARK  367  A    between atoms: _913  and  _914
REMARK  368  A    between atoms: _913  and  _916
REMARK  369  A    between atoms: _916  and  _917
REMARK  370  A    between atoms: _923  and  _925
REMARK  371  A    between atoms: _925  and  _926
REMARK  372  A    between atoms: _925  and  _928
REMARK  373  A    between atoms: _928  and  _929
REMARK  374  A    between atoms: _929  and  _930
REMARK  375  A    between atoms: _930  and  _931
REMARK  376  A    between atoms: _940  and  _942
REMARK  377  A    between atoms: _942  and  _943
REMARK  378  A    between atoms: _942  and  _945
REMARK  379  A    between atoms: _945  and  _946
REMARK  380  A    between atoms: _946  and  _947
REMARK  381  A    between atoms: _947  and  _948
REMARK  382  A    between atoms: _957  and  _959
REMARK  383  A    between atoms: _959  and  _960
REMARK  384  A    between atoms: _962  and  _964
REMARK  385  A    between atoms: _964  and  _965
REMARK  386  A    between atoms: _964  and  _967
REMARK  387  A    between atoms: _967  and  _968
REMARK  388  A    between atoms: _974  and  _975
REMARK  389  A    between atoms: _980  and  _982
REMARK  390  A    between atoms: _982  and  _983
REMARK  391  A    between atoms: _982  and  _985
REMARK  392  A    between atoms: _985  and  _986
REMARK  393  A    between atoms: _996  and  _998
REMARK  394  A    between atoms: _998  and  _999
REMARK  395  A    between atoms: _998  and  _1001
REMARK  396  A    between atoms: _1001  and  _1002
REMARK  397  A    between atoms: _1002  and  _1003
REMARK  398  A    between atoms: _1003  and  _1004
REMARK  399  A    between atoms: _1013  and  _1015
REMARK  400  A    between atoms: _1015  and  _1016
REMARK  401  A    between atoms: _1015  and  _1018
REMARK  402  A    between atoms: _1018  and  _1019
REMARK  403  A    between atoms: _1021  and  _1023
REMARK  404  A    between atoms: _1023  and  _1024
REMARK  405  A    between atoms: _1027  and  _1029
REMARK  406  A    between atoms: _1029  and  _1030
REMARK  407  A    between atoms: _1029  and  _1032
REMARK  408  A    between atoms: _1032  and  _1033
REMARK  409  A    between atoms: _1036  and  _1038
REMARK  410  A    between atoms: _1038  and  _1039
REMARK  411  A    between atoms: _1038  and  _1041
REMARK  412  A    between atoms: _1041  and  _1042
REMARK  413  A    between atoms: _1042  and  _1043
REMARK  414  A    between atoms: _1043  and  _1044
REMARK  415  A    between atoms: _1053  and  _1055
REMARK  416  A    between atoms: _1055  and  _1056
REMARK  417  A    between atoms: _1055  and  _1058
REMARK  418  A    between atoms: _1061  and  _1063
REMARK  419  A    between atoms: _1063  and  _1064
REMARK  420  A    between atoms: _1066  and  _1068
REMARK  421  A    between atoms: _1068  and  _1069
REMARK  422  A    between atoms: _1068  and  _1071
REMARK  423  A    between atoms: _1071  and  _1072
REMARK                            x       y       z     vdW  Elec       q    Type
REMARK                         _______ _______ _______ _____ _____    ______ ____
ROOT
ATOM      1  CA  ILE A   1      11.158  29.052  39.548  0.00  0.00    +0.133 C 
ENDROOT
BRANCH   1   2
ATOM      2  N   ILE A   1      11.319  28.054  38.544  0.00  0.00    -0.239 NA
ATOM      3  H   ILE A   1      12.294  27.817  38.269  0.00  0.00    +0.142 HD
ENDBRANCH   1   2
BRANCH   1   4
ATOM      4  CB  ILE A   1      11.543  28.762  40.987  0.00  0.00    +0.023 C 
ATOM      5  CG2 ILE A   1      11.141  29.941  41.885  0.00  0.00    +0.002 C 
BRANCH   4   6
ATOM      6  CG1 ILE A   1      10.942  27.486  41.537  0.00  0.00    +0.002 C 
ATOM      7  CD1 ILE A   1      10.827  27.515  43.057  0.00  0.00    +0.000 C 
ENDBRANCH   4   6
ENDBRANCH   1   4
BRANCH   1   8
ATOM      8  C   ILE A   1      12.196  30.147  39.169  0.00  0.00    +0.224 C 
ATOM      9  O   ILE A   1      13.332  29.821  38.871  0.00  0.00    -0.287 OA
ENDBRANCH   1   8
TORSDOF 4
REMARK  Name = ../refined-set-2016/1fo0/1fo0_pocket.pdb
REMARK  423 active torsions:
REMARK  status: ('A' for Active; 'I' for Inactive)
REMARK    1  A    between atoms: _1  and  _3
REMARK    2  A    between atoms: _3  and  _4
REMARK    3  A    between atoms: _3  and  _6
REMARK    4  A    between atoms: _6  and  _7
REMARK    5  A    between atoms: _10  and  _12
REMARK    6  A    between atoms: _12  and  _13
REMARK    7  A    between atoms: _12  and  _15
REMARK    8  A    between atoms: _15  and  _16
REMARK    9  A    between atoms: _16  and  _17
REMARK   10  A    between atoms: _17  and  _18
REMARK   11  A    between atoms: _27  and  _29
REMARK   12  A    between atoms: _29  and  _30
REMARK   13  A    between atoms: _29  and  _32
REMARK   14  A    between atoms: _32  and  _33
REMARK   15  A    between atoms: _38  and  _39
REMARK   16  A    between atoms: _41  and  _43
REMARK   17  A    between atoms: _43  and  _44
REMARK   18  A    between atoms: _43  and  _46
REMARK   19  A    between atoms: _46  and  _47
REMARK   20  A    between atoms: _53  and  _55
REMARK   21  A    between atoms: _55  and  _56
REMARK   22  A    between atoms: _55  and  _58
REMARK   23  A    between atoms: _61  and  _63
REMARK   24  A    between atoms: _63  and  _64
REMARK   25  A    between atoms: _63  and  _66
REMARK   26  A    between atoms: _66  and  _67
REMARK   27  A    between atoms: _70  and  _72
REMARK   28  A    between atoms: _72  and  _73
REMARK   29  A    between atoms: _72  and  _75
REMARK   30  A    between atoms: _75  and  _76
REMARK   31  A    between atoms: _81  and  _82
REMARK   32  A    between atoms: _84  and  _86
REMARK   33  A    between atoms: _86  and  _87
REMARK   34  A    between atoms: _86  and  _89
REMARK   35  A    between atoms: _89  and  _90
REMARK   36  A    between atoms: _90  and  _91
REMARK   37  A    between atoms: _93  and  _95
REMARK   38  A    between atoms: _95  and  _96
REMARK   39  A    between atoms: _95  and  _98
REMARK   40  A    between atoms: _98  and  _99
REMARK   41  A    between atoms: _99  and  _100
REMARK   42  A    between atoms: _103  and  _105
REMARK   43  A    between atoms: _105  and  _106
REMARK   44  A    between atoms: _105  and  _108
REMARK   45  A    between atoms: _111  and  _113
REMARK   46  A    between atoms: _113  and  _114
REMARK   47  A    between atoms: _116  and  _118
REMARK   48  A    between atoms: _118  and  _119
REMARK   49  A    between atoms: _118  and  _121
REMARK   50  A    between atoms: _121  and  _122
REMARK   51  A    between atoms: _128  and  _130
REMARK   52  A    between atoms: _130  and  _131
REMARK   53  A    between atoms: _130  and  _133
REMARK   54  A    between atoms: _136  and  _138
REMARK   55  A    between atoms: _138  and  _139
REMARK   56  A    between atoms: _138  and  _141
REMARK   57  A    between atoms: _141  and  _142
REMARK   58  A    between atoms: _148  and  _150
REMARK   59  A    between atoms: _150  and  _151
REMARK   60  A    between atoms: _150  and  _153
REMARK   61  A    between atoms: _153  and  _154
REMARK   62  A    between atoms: _159  and  _160
REMARK   63  A    between atoms: _162  and  _164
REMARK   64  A    between atoms: _164  and  _165
REMARK   65  A    between atoms: _164  and  _167
REMARK   66  A    between atoms: _167  and  _168
REMARK   67  A    between atoms: _168  and  _169
REMARK   68  A    between atoms: _171  and  _173
REMARK   69  A    between atoms: _173  and  _174
REMARK   70  A    between atoms: _173  and  _176
REMARK   71  A    between atoms: _176  and  _177
REMARK   72  A    between atoms: _177  and  _178
REMARK   73  A    between atoms: _181  and  _183
REMARK   74  A    between atoms: _183  and  _184
REMARK   75  A    between atoms: _183  and  _186
REMARK   76  A    between atoms: _186  and  _187
REMARK   77  A    between atoms: _192  and  _193
REMARK   78  A    between atoms: _195  and  _197
REMARK   79  A    between atoms: _197  and  _198
REMARK   80  A    between atoms: _197  and  _200
REMARK   81  A    between atoms: _200  and  _201
REMARK   82  A    between atoms: _201  and  _202
REMARK   83  A    between atoms: _202  and  _203
REMARK   84  A    between atoms: _212  and  _214
REMARK   85  A    between atoms: _214  and  _215
REMARK   86  A    between atoms: _214  and  _217
REMARK   87  A    between atoms: _217  and  _218
REMARK   88  A    between atoms: _218  and  _219
REMARK   89  A    between atoms: _222  and  _224
REMARK   90  A    between atoms: _224  and  _225
REMARK   91  A    between atoms: _224  and  _227
REMARK   92  A    between atoms: _227  and  _228
REMARK   93  A    between atoms: _228  and  _229
REMARK   94  A    between atoms: _234  and  _236
REMARK   95  A    between atoms: _236  and  _237
REMARK   96  A    between atoms: _236  and  _239
REMARK   97  A    between atoms: _239  and  _240
REMARK   98  A    between atoms: _240  and  _241
REMARK   99  A    between atoms: _241  and  _242
REMARK  100  A    between atoms: _242  and  _243
REMARK  101  A    between atoms: _247  and  _249
REMARK  102  A    between atoms: _249  and  _250
REMARK  103  A    between atoms: _253  and  _255
REMARK  104  A    between atoms: _255  and  _256
REMARK  105  A    between atoms: _255  and  _258
REMARK  106  A    between atoms: _258  and  _259
REMARK  107  A    between atoms: _259  and  _260
REMARK  108  A    between atoms: _260  and  _261
REMARK  109  A    between atoms: _261  and  _262
REMARK  110  A    between atoms: _266  and  _268
REMARK  111  A    between atoms: _268  and  _269
REMARK  112  A    between atoms: _271  and  _273
REMARK  113  A    between atoms: _273  and  _274
REMARK  114  A    between atoms: _273  and  _276
REMARK  115  A    between atoms: _276  and  _277
REMARK  116  A    between atoms: _282  and  _284
REMARK  117  A    between atoms: _284  and  _285
REMARK  118  A    between atoms: _284  and  _287
REMARK  119  A    between atoms: _287  and  _288
REMARK  120  A    between atoms: _288  and  _289
REMARK  121  A    between atoms: _292  and  _294
REMARK  122  A    between atoms: _294  and  _295
REMARK  123  A    between atoms: _294  and  _297
REMARK  124  A    between atoms: _297  and  _298
REMARK  125  A    between atoms: _298  and  _299
REMARK  126  A    between atoms: _304  and  _306
REMARK  127  A    between atoms: _306  and  _307
REMARK  128  A    between atoms: _306  and  _309
REMARK  129  A    between atoms: _309  and  _310
REMARK  130  A    between atoms: _312  and  _314
REMARK  131  A    between atoms: _314  and  _315
REMARK  132  A    between atoms: _314  and  _317
REMARK  133  A    between atoms: _317  and  _318
REMARK  134  A    between atoms: _324  and  _326
REMARK  135  A    between atoms: _326  and  _327
REMARK  136  A    between atoms: _326  and  _329
REMARK  137  A    between atoms: _329  and  _330
REMARK  138  A    between atoms: _330  and  _331
REMARK  139  A    between atoms: _331  and  _332
REMARK  140  A    between atoms: _341  and  _343
REMARK  141  A    between atoms: _343  and  _344
REMARK  142  A    between atoms: _343  and  _346
REMARK  143  A    between atoms: _349  and  _351
REMARK  144  A    between atoms: _351  and  _352
REMARK  145  A    between atoms: _351  and  _354
REMARK  146  A    between atoms: _354  and  _355
REMARK  147  A    between atoms: _358  and  _360
REMARK  148  A    between atoms: _360  and  _361
REMARK  149  A    between atoms: _360  and  _363
REMARK  150  A    between atoms: _363  and  _364
REMARK  151  A    between atoms: _367  and  _369
REMARK  152  A    between atoms: _369  and  _370
REMARK  153  A    between atoms: _369  and  _372
REMARK  154  A    between atoms: _372  and  _373
REMARK  155  A    between atoms: _373  and  _374
REMARK  156  A    between atoms: _374  and  _375
REMARK  157  A    between atoms: _384  and  _386
REMARK  158  A    between atoms: _386  and  _387
REMARK  159  A    between atoms: _386  and  _389
REMARK  160  A    between atoms: _389  and  _390
REMARK  161  A    between atoms: _393  and  _395
REMARK  162  A    between atoms: _395  and  _396
REMARK  163  A    between atoms: _395  and  _398
REMARK  164  A    between atoms: _398  and  _399
REMARK  165  A    between atoms: _402  and  _404
REMARK  166  A    between atoms: _404  and  _405
REMARK  167  A    between atoms: _404  and  _407
REMARK  168  A    between atoms: _407  and  _408
REMARK  169  A    between atoms: _411  and  _413
REMARK  170  A    between atoms: _413  and  _414
REMARK  171  A    between atoms: _413  and  _416
REMARK  172  A    between atoms: _416  and  _417
REMARK  173  A    between atoms: _422  and  _423
REMARK  174  A    between atoms: _425  and  _427
REMARK  175  A    between atoms: _427  and  _428
REMARK  176  A    between atoms: _427  and  _430
REMARK  177  A    between atoms: _430  and  _431
REMARK  178  A    between atoms: _436  and  _437
REMARK  179  A    between atoms: _439  and  _441
REMARK  180  A    between atoms: _441  and  _442
REMARK  181  A    between atoms: _441  and  _444
REMARK  182  A    between atoms: _444  and  _445
REMARK  183  A    between atoms: _448  and  _450
REMARK  184  A    between atoms: _450  and  _451
REMARK  185  A    between atoms: _450  and  _453
REMARK  186  A    between atoms: _456  and  _458
REMARK  187  A    between atoms: _458  and  _459
REMARK  188  A    between atoms: _458  and  _461
REMARK  189  A    between atoms: _461  and  _462
REMARK  190  A    between atoms: _465  and  _467
REMARK  191  A    between atoms: _467  and  _468
REMARK  192  A    between atoms: _467  and  _470
REMARK  193  A    between atoms: _470  and  _471
REMARK  194  A    between atoms: _473  and  _475
REMARK  195  A    between atoms: _475  and  _476
REMARK  196  A    between atoms: _478  and  _480
REMARK  197  A    between atoms: _480  and  _481
REMARK  198  A    between atoms: _480  and  _483
REMARK  199  A    between atoms: _483  and  _484
REMARK  200  A    between atoms: _489  and  _490
REMARK  201  A    between atoms: _492  and  _494
REMARK  202  A    between atoms: _494  and  _495
REMARK  203  A    between atoms: _494  and  _497
REMARK  204  A    between atoms: _497  and  _498
REMARK  205  A    between atoms: _498  and  _499
REMARK  206  A    between atoms: _504  and  _506
REMARK  207  A    between atoms: _506  and  _507
REMARK  208  A    between atoms: _506  and  _509
REMARK  209  A    between atoms: _509  and  _510
REMARK  210  A    between atoms: _510  and  _511
REMARK  211  A    between atoms: _516  and  _518
REMARK  212  A    between atoms: _518  and  _519
REMARK  213  A    between atoms: _518  and  _521
REMARK  214  A    between atoms: _521  and  _522
REMARK  215  A    between atoms: _527  and  _528
REMARK  216  A    between atoms: _530  and  _532
REMARK  217  A    between atoms: _532  and  _533
REMARK  218  A    between atoms: _532  and  _535
REMARK  219  A    between atoms: _535  and  _536
REMARK  220  A    between atoms: _541  and  _542
REMARK  221  A    between atoms: _544  and  _546
REMARK  222  A    between atoms: _546  and  _547
REMARK  223  A    between atoms: _546  and  _549
REMARK  224  A    between atoms: _549  and  _550
REMARK  225  A    between atoms: _555  and  _556
REMARK  226  A    between atoms: _558  and  _560
REMARK  227  A    between atoms: _560  and  _561
REMARK  228  A    between atoms: _560  and  _563
REMARK  229  A    between atoms: _563  and  _564
REMARK  230  A    between atoms: _567  and  _569
REMARK  231  A    between atoms: _569  and  _570
REMARK  232  A    between atoms: _569  and  _572
REMARK  233  A    between atoms: _572  and  _573
REMARK  234  A    between atoms: _583  and  _585
REMARK  235  A    between atoms: _585  and  _586
REMARK  236  A    between atoms: _589  and  _591
REMARK  237  A    between atoms: _591  and  _592
REMARK  238  A    between atoms: _595  and  _597
REMARK  239  A    between atoms: _597  and  _598
REMARK  240  A    between atoms: _597  and  _600
REMARK  241  A    between atoms: _600  and  _601
REMARK  242  A    between atoms: _604  and  _606
REMARK  243  A    between atoms: _606  and  _607
REMARK  244  A    between atoms: _606  and  _609
REMARK  245  A    between atoms: _609  and  _610
REMARK  246  A    between atoms: _613  and  _615
REMARK  247  A    between atoms: _615  and  _616
REMARK  248  A    between atoms: _615  and  _618
REMARK  249  A    between atoms: _618  and  _619
REMARK  250  A    between atoms: _622  and  _624
REMARK  251  A    between atoms: _624  and  _625
REMARK  252  A    between atoms: _624  and  _627
REMARK  253  A    between atoms: _627  and  _628
REMARK  254  A    between atoms: _628  and  _629
REMARK  255  A    between atoms: _629  and  _630
REMARK  256  A    between atoms: _630  and  _631
REMARK  257  A    between atoms: _635  and  _637
REMARK  258  A    between atoms: _637  and  _638
REMARK  259  A    between atoms: _637  and  _640
REMARK  260  A    between atoms: _640  and  _641
REMARK  261  A    between atoms: _646  and  _648
REMARK  262  A    between atoms: _648  and  _649
REMARK  263  A    between atoms: _648  and  _651
REMARK  264  A    between atoms: _651  and  _652
REMARK  265  A    between atoms: _652  and  _653
REMARK  266  A    between atoms: _653  and  _654
REMARK  267  A    between atoms: _654  and  _655
REMARK  268  A    between atoms: _659  and  _661
REMARK  269  A    between atoms: _661  and  _662
REMARK  270  A    between atoms: _661  and  _664
REMARK  271  A    between atoms: _664  and  _665
REMARK  272  A    between atoms: _675  and  _677
REMARK  273  A    between atoms: _677  and  _678
REMARK  274  A    between atoms: _681  and  _683
REMARK  275  A    between atoms: _683  and  _684
REMARK  276  A    between atoms: _686  and  _688
REMARK  277  A    between atoms: _688  and  _689
REMARK  278  A    between atoms: _688  and  _691
REMARK  279  A    between atoms: _691  and  _692
REMARK  280  A    between atoms: _692  and  _693
REMARK  281  A    between atoms: _696  and  _698
REMARK  282  A    between atoms: _698  and  _699
REMARK  283  A    between atoms: _702  and  _704
REMARK  284  A    between atoms: _704  and  _705
REMARK  285  A    between atoms: _704  and  _707
REMARK  286  A    between atoms: _707  and  _708
REMARK  287  A    between atoms: _708  and  _709
REMARK  288  A    between atoms: _712  and  _714
REMARK  289  A    between atoms: _714  and  _715
REMARK  290  A    between atoms: _714  and  _717
REMARK  291  A    between atoms: _717  and  _718
REMARK  292  A    between atoms: _718  and  _719
REMARK  293  A    between atoms: _719  and  _720
REMARK  294  A    between atoms: _729  and  _731
REMARK  295  A    between atoms: _731  and  _732
REMARK  296  A    between atoms: _731  and  _734
REMARK  297  A    between atoms: _734  and  _735
REMARK  298  A    between atoms: _738  and  _740
REMARK  299  A    between atoms: _740  and  _741
REMARK  300  A    between atoms: _740  and  _743
REMARK  301  A    between atoms: _743  and  _744
REMARK  302  A    between atoms: _744  and  _745
REMARK  303  A    between atoms: _745  and  _746
REMARK  304  A    between atoms: _755  and  _757
REMARK  305  A    between atoms: _757  and  _758
REMARK  306  A    between atoms: _761  and  _763
REMARK  307  A    between atoms: _763  and  _764
REMARK  308  A    between atoms: _763  and  _766
REMARK  309  A    between atoms: _766  and  _767
REMARK  310  A    between atoms: _772  and  _773
REMARK  311  A    between atoms: _775  and  _777
REMARK  312  A    between atoms: _777  and  _778
REMARK  313  A    between atoms: _777  and  _780
REMARK  314  A    between atoms: _780  and  _781
REMARK  315  A    between atoms: _784  and  _786
REMARK  316  A    between atoms: _786  and  _787
REMARK  317  A    between atoms: _786  and  _789
REMARK  318  A    between atoms: _789  and  _790
REMARK  319  A    between atoms: _793  and  _795
REMARK  320  A    between atoms: _795  and  _796
REMARK  321  A    between atoms: _795  and  _798
REMARK  322  A    between atoms: _800  and  _802
REMARK  323  A    between atoms: _802  and  _803
REMARK  324  A    between atoms: _802  and  _805
REMARK  325  A    between atoms: _808  and  _810
REMARK  326  A    between atoms: _810  and  _811
REMARK  327  A    between atoms: _810  and  _813
REMARK  328  A    between atoms: _813  and  _814
REMARK  329  A    between atoms: _814  and  _815
REMARK  330  A    between atoms: _818  and  _820
REMARK  331  A    between atoms: _820  and  _821
REMARK  332  A    between atoms: _820  and  _823
REMARK  333  A    between atoms: _823  and  _824
REMARK  334  A    between atoms: _834  and  _836
REMARK  335  A    between atoms: _836  and  _837
REMARK  336  A    between atoms: _836  and  _839
REMARK  337  A    between atoms: _839  and  _840
REMARK  338  A    between atoms: _843  and  _845
REMARK  339  A    between atoms: _845  and  _846
REMARK  340  A    between atoms: _845  and  _848
REMARK  341  A    between atoms: _848  and  _849
REMARK  342  A    between atoms: _849  and  _850
REMARK  343  A    between atoms: _850  and  _851
REMARK  344  A    between atoms: _860  and  _862
REMARK  345  A    between atoms: _862  and  _863
REMARK  346  A    between atoms: _862  and  _865
REMARK  347  A    between atoms: _865  and  _866
REMARK  348  A    between atoms: _871  and  _872
REMARK  349  A    between atoms: _874  and  _876
REMARK  350  A    between atoms: _876  and  _877
REMARK  351  A    between atoms: _876  and  _879
REMARK  352  A    between atoms: _879  and  _880
REMARK  353  A    between atoms: _880  and  _881
REMARK  354  A    between atoms: _886  and  _888
REMARK  355  A    between atoms: _888  and  _889
REMARK  356  A    between atoms: _888  and  _891
REMARK  357  A    between atoms: _891  and  _892
REMARK  358  A    between atoms: _895  and  _897
REMARK  359  A    between atoms: _897  and  _898
REMARK  360  A    between atoms: _897  and  _900
REMARK  361  A    between atoms: _900  and  _901
REMARK  362  A    between atoms: _903  and  _905
REMARK  363  A    between atoms: _905  and  _906
REMARK  364  A    between atoms: _905  and  _908
REMARK  365  A    between atoms: _908  and  _909
REMARK  366  A    between atoms: _911  and  _913
REMARK  367  A    between atoms: _913  and  _914
REMARK  368  A    between atoms: _913  and  _916
REMARK  369  A    between atoms: _916  and  _917
REMARK  370  A    between atoms: _923  and  _925
REMARK  371  A    between atoms: _925  and  _926
REMARK  372  A    between atoms: _925  and  _928
REMARK  373  A    between atoms: _928  and  _929
REMARK  374  A    between atoms: _929  and  _930
REMARK  375  A    between atoms: _930  and  _931
REMARK  376  A    between atoms: _940  and  _942
REMARK  377  A    between atoms: _942  and  _943
REMARK  378  A    between atoms: _942  and  _945
REMARK  379  A    between atoms: _945  and  _946
REMARK  380  A    between atoms: _946  and  _947
REMARK  381  A    between atoms: _947  and  _948
REMARK  382  A    between atoms: _957  and  _959
REMARK  383  A    between atoms: _959  and  _960
REMARK  384  A    between atoms: _962  and  _964
REMARK  385  A    between atoms: _964  and  _965
REMARK  386  A    between atoms: _964  and  _967
REMARK  387  A    between atoms: _967  and  _968
REMARK  388  A    between atoms: _974  and  _975
REMARK  389  A    between atoms: _980  and  _982
REMARK  390  A    between atoms: _982  and  _983
REMARK  391  A    between atoms: _982  and  _985
REMARK  392  A    between atoms: _985  and  _986
REMARK  393  A    between atoms: _996  and  _998
REMARK  394  A    between atoms: _998  and  _999
REMARK  395  A    between atoms: _998  and  _1001
REMARK  396  A    between atoms: _1001  and  _1002
REMARK  397  A    between atoms: _1002  and  _1003
REMARK  398  A    between atoms: _1003  and  _1004
REMARK  399  A    between atoms: _1013  and  _1015
REMARK  400  A    between atoms: _1015  and  _1016
REMARK  401  A    between atoms: _1015  and  _1018
REMARK  402  A    between atoms: _1018  and  _1019
REMARK  403  A    between atoms: _1021  and  _1023
REMARK  404  A    between atoms: _1023  and  _1024
REMARK  405  A    between atoms: _1027  and  _1029
REMARK  406  A    between atoms: _1029  and  _1030
REMARK  407  A    between atoms: _1029  and  _1032
REMARK  408  A    between atoms: _1032  and  _1033
REMARK  409  A    between atoms: _1036  and  _1038
REMARK  410  A    between atoms: _1038  and  _1039
REMARK  411  A    between atoms: _1038  and  _1041
REMARK  412  A    between atoms: _1041  and  _1042
REMARK  413  A    between atoms: _1042  and  _1043
REMARK  414  A    between atoms: _1043  and  _1044
REMARK  415  A    between atoms: _1053  and  _1055
REMARK  416  A    between atoms: _1055  and  _1056
REMARK  417  A    between atoms: _1055  and  _1058
REMARK  418  A    between atoms: _1061  and  _1063
REMARK  419  A    between atoms: _1063  and  _1064
REMARK  420  A    between atoms: _1066  and  _1068
REMARK  421  A    between atoms: _1068  and  _1069
REMARK  422  A    between atoms: _1068  and  _1071
REMARK  423  A    between atoms: _1071  and  _1072
REMARK                            x       y       z     vdW  Elec       q    Type
REMARK                         _______ _______ _______ _____ _____    ______ ____
ROOT
ATOM      1  CA  ILE A   2      14.334  39.035  40.541  0.00  0.00    +0.148 C 
ENDROOT
BRANCH   1   3
ATOM      2  C   VAL A   1      14.192  36.576  40.501  0.00  0.00    +0.238 C 
ATOM      3  N   ILE A   2      13.707  37.767  40.849  0.00  0.00    -0.297 N 
ATOM      4  H   ILE A   2      12.813  37.787  41.380  0.00  0.00    +0.150 HD
ATOM      5  O   VAL A   1      15.184  36.421  39.770  0.00  0.00    -0.274 OA
BRANCH   2   6
ATOM      6  CA  VAL A   1      13.401  35.385  41.058  0.00  0.00    +0.145 C 
BRANCH   6   7
ATOM      7  CB  VAL A   1      13.930  34.956  42.430  0.00  0.00    +0.025 C 
ATOM      8  CG2 VAL A   1      13.999  36.097  43.438  0.00  0.00    +0.002 C 
ATOM      9  CG1 VAL A   1      13.156  33.813  43.069  0.00  0.00    +0.002 C 
ENDBRANCH   6   7
BRANCH   6  10
ATOM     10  N   VAL A   1      13.528  34.281  40.102  0.00  0.00    -0.238 NA
ATOM     11  H   VAL A   1      14.436  34.067  39.643  0.00  0.00    +0.142 HD
ENDBRANCH   6  10
ENDBRANCH   2   6
ENDBRANCH   1   3
BRANCH   1  12
ATOM     12  C   ILE A   2      14.412  39.750  41.914  0.00  0.00    +0.241 C 
ATOM     13  O   ILE A   2      13.371  39.966  42.519  0.00  0.00    -0.273 OA
ATOM     14  N   SER A   3      15.612  40.016  42.355  0.00  0.00    -0.295 N 
ATOM     15  H   SER A   3      16.425  39.788  41.748  0.00  0.00    +0.150 HD
BRANCH  14  16
ATOM     16  CA  SER A   3      15.865  40.614  43.651  0.00  0.00    +0.178 C 
BRANCH  16  17
ATOM     17  C   SER A   3      16.913  41.708  43.526  0.00  0.00    +0.243 C 
ATOM     18  N   GLY A   4      16.745  42.787  44.285  0.00  0.00    -0.296 N 
ATOM     19  H   GLY A   4      15.938  42.865  44.937  0.00  0.00    +0.150 HD
ATOM     20  O   SER A   3      17.876  41.559  42.765  0.00  0.00    -0.273 OA
BRANCH  18  21
ATOM     21  CA  GLY A   4      17.731  43.858  44.173  0.00  0.00    +0.163 C 
BRANCH  21  22
ATOM     22  C   GLY A   4      17.149  45.210  44.538  0.00  0.00    +0.229 C 
ATOM     23  O   GLY A   4      16.148  45.322  45.242  0.00  0.00    -0.286 OA
ENDBRANCH  21  22
ENDBRANCH  18  21
ENDBRANCH  16  17
BRANCH  16  24
ATOM     24  CB  SER A   3      16.476  39.489  44.538  0.00  0.00    +0.166 C 
BRANCH  24  25
ATOM     25  OG  SER A   3      17.004  40.050  45.725  0.00  0.00    -0.380 OA
ATOM     26  H   SER A   3      17.709  40.705  45.494  0.00  0.00    +0.211 HD
ENDBRANCH  24  25
ENDBRANCH  16  24
ENDBRANCH  14  16
ENDBRANCH   1  12
BRANCH   1  27
ATOM     27  CB  ILE A   2      13.714  39.966  39.508  0.00  0.00    +0.027 C 
ATOM     28  CG2 ILE A   2      14.409  41.336  39.502  0.00  0.00    +0.002 C 
BRANCH  27  29
ATOM     29  CG1 ILE A   2      13.899  39.368  38.102  0.00  0.00    +0.002 C 
ATOM     30  CD1 ILE A   2      12.872  39.888  37.126  0.00  0.00    +0.000 C 
ENDBRANCH  27  29
ENDBRANCH   1  27
TORSDOF 13
REMARK  Name = ../refined-set-2016/1fo0/1fo0_pocket.pdb
REMARK  423 active torsions:
REMARK  status: ('A' for Active; 'I' for Inactive)
REMARK    1  A    between atoms: _1  and  _3
REMARK    2  A    between atoms: _3  and  _4
REMARK    3  A    between atoms: _3  and  _6
REMARK    4  A    between atoms: _6  and  _7
REMARK    5  A    between atoms: _10  and  _12
REMARK    6  A    between atoms: _12  and  _13
REMARK    7  A    between atoms: _12  and  _15
REMARK    8  A    between atoms: _15  and  _16
REMARK    9  A    between atoms: _16  and  _17
REMARK   10  A    between atoms: _17  and  _18
REMARK   11  A    between atoms: _27  and  _29
REMARK   12  A    between atoms: _29  and  _30
REMARK   13  A    between atoms: _29  and  _32
REMARK   14  A    between atoms: _32  and  _33
REMARK   15  A    between atoms: _38  and  _39
REMARK   16  A    between atoms: _41  and  _43
REMARK   17  A    between atoms: _43  and  _44
REMARK   18  A    between atoms: _43  and  _46
REMARK   19  A    between atoms: _46  and  _47
REMARK   20  A    between atoms: _53  and  _55
REMARK   21  A    between atoms: _55  and  _56
REMARK   22  A    between atoms: _55  and  _58
REMARK   23  A    between atoms: _61  and  _63
REMARK   24  A    between atoms: _63  and  _64
REMARK   25  A    between atoms: _63  and  _66
REMARK   26  A    between atoms: _66  and  _67
REMARK   27  A    between atoms: _70  and  _72
REMARK   28  A    between atoms: _72  and  _73
REMARK   29  A    between atoms: _72  and  _75
REMARK   30  A    between atoms: _75  and  _76
REMARK   31  A    between atoms: _81  and  _82
REMARK   32  A    between atoms: _84  and  _86
REMARK   33  A    between atoms: _86  and  _87
REMARK   34  A    between atoms: _86  and  _89
REMARK   35  A    between atoms: _89  and  _90
REMARK   36  A    between atoms: _90  and  _91
REMARK   37  A    between atoms: _93  and  _95
REMARK   38  A    between atoms: _95  and  _96
REMARK   39  A    between atoms: _95  and  _98
REMARK   40  A    between atoms: _98  and  _99
REMARK   41  A    between atoms: _99  and  _100
REMARK   42  A    between atoms: _103  and  _105
REMARK   43  A    between atoms: _105  and  _106
REMARK   44  A    between atoms: _105  and  _108
REMARK   45  A    between atoms: _111  and  _113
REMARK   46  A    between atoms: _113  and  _114
REMARK   47  A    between atoms: _116  and  _118
REMARK   48  A    between atoms: _118  and  _119
REMARK   49  A    between atoms: _118  and  _121
REMARK   50  A    between atoms: _121  and  _122
REMARK   51  A    between atoms: _128  and  _130
REMARK   52  A    between atoms: _130  and  _131
REMARK   53  A    between atoms: _130  and  _133
REMARK   54  A    between atoms: _136  and  _138
REMARK   55  A    between atoms: _138  and  _139
REMARK   56  A    between atoms: _138  and  _141
REMARK   57  A    between atoms: _141  and  _142
REMARK   58  A    between atoms: _148  and  _150
REMARK   59  A    between atoms: _150  and  _151
REMARK   60  A    between atoms: _150  and  _153
REMARK   61  A    between atoms: _153  and  _154
REMARK   62  A    between atoms: _159  and  _160
REMARK   63  A    between atoms: _162  and  _164
REMARK   64  A    between atoms: _164  and  _165
REMARK   65  A    between atoms: _164  and  _167
REMARK   66  A    between atoms: _167  and  _168
REMARK   67  A    between atoms: _168  and  _169
REMARK   68  A    between atoms: _171  and  _173
REMARK   69  A    between atoms: _173  and  _174
REMARK   70  A    between atoms: _173  and  _176
REMARK   71  A    between atoms: _176  and  _177
REMARK   72  A    between atoms: _177  and  _178
REMARK   73  A    between atoms: _181  and  _183
REMARK   74  A    between atoms: _183  and  _184
REMARK   75  A    between atoms: _183  and  _186
REMARK   76  A    between atoms: _186  and  _187
REMARK   77  A    between atoms: _192  and  _193
REMARK   78  A    between atoms: _195  and  _197
REMARK   79  A    between atoms: _197  and  _198
REMARK   80  A    between atoms: _197  and  _200
REMARK   81  A    between atoms: _200  and  _201
REMARK   82  A    between atoms: _201  and  _202
REMARK   83  A    between atoms: _202  and  _203
REMARK   84  A    between atoms: _212  and  _214
REMARK   85  A    between atoms: _214  and  _215
REMARK   86  A    between atoms: _214  and  _217
REMARK   87  A    between atoms: _217  and  _218
REMARK   88  A    between atoms: _218  and  _219
REMARK   89  A    between atoms: _222  and  _224
REMARK   90  A    between atoms: _224  and  _225
REMARK   91  A    between atoms: _224  and  _227
REMARK   92  A    between atoms: _227  and  _228
REMARK   93  A    between atoms: _228  and  _229
REMARK   94  A    between atoms: _234  and  _236
REMARK   95  A    between atoms: _236  and  _237
REMARK   96  A    between atoms: _236  and  _239
REMARK   97  A    between atoms: _239  and  _240
REMARK   98  A    between atoms: _240  and  _241
REMARK   99  A    between atoms: _241  and  _242
REMARK  100  A    between atoms: _242  and  _243
REMARK  101  A    between atoms: _247  and  _249
REMARK  102  A    between atoms: _249  and  _250
REMARK  103  A    between atoms: _253  and  _255
REMARK  104  A    between atoms: _255  and  _256
REMARK  105  A    between atoms: _255  and  _258
REMARK  106  A    between atoms: _258  and  _259
REMARK  107  A    between atoms: _259  and  _260
REMARK  108  A    between atoms: _260  and  _261
REMARK  109  A    between atoms: _261  and  _262
REMARK  110  A    between atoms: _266  and  _268
REMARK  111  A    between atoms: _268  and  _269
REMARK  112  A    between atoms: _271  and  _273
REMARK  113  A    between atoms: _273  and  _274
REMARK  114  A    between atoms: _273  and  _276
REMARK  115  A    between atoms: _276  and  _277
REMARK  116  A    between atoms: _282  and  _284
REMARK  117  A    between atoms: _284  and  _285
REMARK  118  A    between atoms: _284  and  _287
REMARK  119  A    between atoms: _287  and  _288
REMARK  120  A    between atoms: _288  and  _289
REMARK  121  A    between atoms: _292  and  _294
REMARK  122  A    between atoms: _294  and  _295
REMARK  123  A    between atoms: _294  and  _297
REMARK  124  A    between atoms: _297  and  _298
REMARK  125  A    between atoms: _298  and  _299
REMARK  126  A    between atoms: _304  and  _306
REMARK  127  A    between atoms: _306  and  _307
REMARK  128  A    between atoms: _306  and  _309
REMARK  129  A    between atoms: _309  and  _310
REMARK  130  A    between atoms: _312  and  _314
REMARK  131  A    between atoms: _314  and  _315
REMARK  132  A    between atoms: _314  and  _317
REMARK  133  A    between atoms: _317  and  _318
REMARK  134  A    between atoms: _324  and  _326
REMARK  135  A    between atoms: _326  and  _327
REMARK  136  A    between atoms: _326  and  _329
REMARK  137  A    between atoms: _329  and  _330
REMARK  138  A    between atoms: _330  and  _331
REMARK  139  A    between atoms: _331  and  _332
REMARK  140  A    between atoms: _341  and  _343
REMARK  141  A    between atoms: _343  and  _344
REMARK  142  A    between atoms: _343  and  _346
REMARK  143  A    between atoms: _349  and  _351
REMARK  144  A    between atoms: _351  and  _352
REMARK  145  A    between atoms: _351  and  _354
REMARK  146  A    between atoms: _354  and  _355
REMARK  147  A    between atoms: _358  and  _360
REMARK  148  A    between atoms: _360  and  _361
REMARK  149  A    between atoms: _360  and  _363
REMARK  150  A    between atoms: _363  and  _364
REMARK  151  A    between atoms: _367  and  _369
REMARK  152  A    between atoms: _369  and  _370
REMARK  153  A    between atoms: _369  and  _372
REMARK  154  A    between atoms: _372  and  _373
REMARK  155  A    between atoms: _373  and  _374
REMARK  156  A    between atoms: _374  and  _375
REMARK  157  A    between atoms: _384  and  _386
REMARK  158  A    between atoms: _386  and  _387
REMARK  159  A    between atoms: _386  and  _389
REMARK  160  A    between atoms: _389  and  _390
REMARK  161  A    between atoms: _393  and  _395
REMARK  162  A    between atoms: _395  and  _396
REMARK  163  A    between atoms: _395  and  _398
REMARK  164  A    between atoms: _398  and  _399
REMARK  165  A    between atoms: _402  and  _404
REMARK  166  A    between atoms: _404  and  _405
REMARK  167  A    between atoms: _404  and  _407
REMARK  168  A    between atoms: _407  and  _408
REMARK  169  A    between atoms: _411  and  _413
REMARK  170  A    between atoms: _413  and  _414
REMARK  171  A    between atoms: _413  and  _416
REMARK  172  A    between atoms: _416  and  _417
REMARK  173  A    between atoms: _422  and  _423
REMARK  174  A    between atoms: _425  and  _427
REMARK  175  A    between atoms: _427  and  _428
REMARK  176  A    between atoms: _427  and  _430
REMARK  177  A    between atoms: _430  and  _431
REMARK  178  A    between atoms: _436  and  _437
REMARK  179  A    between atoms: _439  and  _441
REMARK  180  A    between atoms: _441  and  _442
REMARK  181  A    between atoms: _441  and  _444
REMARK  182  A    between atoms: _444  and  _445
REMARK  183  A    between atoms: _448  and  _450
REMARK  184  A    between atoms: _450  and  _451
REMARK  185  A    between atoms: _450  and  _453
REMARK  186  A    between atoms: _456  and  _458
REMARK  187  A    between atoms: _458  and  _459
REMARK  188  A    between atoms: _458  and  _461
REMARK  189  A    between atoms: _461  and  _462
REMARK  190  A    between atoms: _465  and  _467
REMARK  191  A    between atoms: _467  and  _468
REMARK  192  A    between atoms: _467  and  _470
REMARK  193  A    between atoms: _470  and  _471
REMARK  194  A    between atoms: _473  and  _475
REMARK  195  A    between atoms: _475  and  _476
REMARK  196  A    between atoms: _478  and  _480
REMARK  197  A    between atoms: _480  and  _481
REMARK  198  A    between atoms: _480  and  _483
REMARK  199  A    between atoms: _483  and  _484
REMARK  200  A    between atoms: _489  and  _490
REMARK  201  A    between atoms: _492  and  _494
REMARK  202  A    between atoms: _494  and  _495
REMARK  203  A    between atoms: _494  and  _497
REMARK  204  A    between atoms: _497  and  _498
REMARK  205  A    between atoms: _498  and  _499
REMARK  206  A    between atoms: _504  and  _506
REMARK  207  A    between atoms: _506  and  _507
REMARK  208  A    between atoms: _506  and  _509
REMARK  209  A    between atoms: _509  and  _510
REMARK  210  A    between atoms: _510  and  _511
REMARK  211  A    between atoms: _516  and  _518
REMARK  212  A    between atoms: _518  and  _519
REMARK  213  A    between atoms: _518  and  _521
REMARK  214  A    between atoms: _521  and  _522
REMARK  215  A    between atoms: _527  and  _528
REMARK  216  A    between atoms: _530  and  _532
REMARK  217  A    between atoms: _532  and  _533
REMARK  218  A    between atoms: _532  and  _535
REMARK  219  A    between atoms: _535  and  _536
REMARK  220  A    between atoms: _541  and  _542
REMARK  221  A    between atoms: _544  and  _546
REMARK  222  A    between atoms: _546  and  _547
REMARK  223  A    between atoms: _546  and  _549
REMARK  224  A    between atoms: _549  and  _550
REMARK  225  A    between atoms: _555  and  _556
REMARK  226  A    between atoms: _558  and  _560
REMARK  227  A    between atoms: _560  and  _561
REMARK  228  A    between atoms: _560  and  _563
REMARK  229  A    between atoms: _563  and  _564
REMARK  230  A    between atoms: _567  and  _569
REMARK  231  A    between atoms: _569  and  _570
REMARK  232  A    between atoms: _569  and  _572
REMARK  233  A    between atoms: _572  and  _573
REMARK  234  A    between atoms: _583  and  _585
REMARK  235  A    between atoms: _585  and  _586
REMARK  236  A    between atoms: _589  and  _591
REMARK  237  A    between atoms: _591  and  _592
REMARK  238  A    between atoms: _595  and  _597
REMARK  239  A    between atoms: _597  and  _598
REMARK  240  A    between atoms: _597  and  _600
REMARK  241  A    between atoms: _600  and  _601
REMARK  242  A    between atoms: _604  and  _606
REMARK  243  A    between atoms: _606  and  _607
REMARK  244  A    between atoms: _606  and  _609
REMARK  245  A    between atoms: _609  and  _610
REMARK  246  A    between atoms: _613  and  _615
REMARK  247  A    between atoms: _615  and  _616
REMARK  248  A    between atoms: _615  and  _618
REMARK  249  A    between atoms: _618  and  _619
REMARK  250  A    between atoms: _622  and  _624
REMARK  251  A    between atoms: _624  and  _625
REMARK  252  A    between atoms: _624  and  _627
REMARK  253  A    between atoms: _627  and  _628
REMARK  254  A    between atoms: _628  and  _629
REMARK  255  A    between atoms: _629  and  _630
REMARK  256  A    between atoms: _630  and  _631
REMARK  257  A    between atoms: _635  and  _637
REMARK  258  A    between atoms: _637  and  _638
REMARK  259  A    between atoms: _637  and  _640
REMARK  260  A    between atoms: _640  and  _641
REMARK  261  A    between atoms: _646  and  _648
REMARK  262  A    between atoms: _648  and  _649
REMARK  263  A    between atoms: _648  and  _651
REMARK  264  A    between atoms: _651  and  _652
REMARK  265  A    between atoms: _652  and  _653
REMARK  266  A    between atoms: _653  and  _654
REMARK  267  A    between atoms: _654  and  _655
REMARK  268  A    between atoms: _659  and  _661
REMARK  269  A    between atoms: _661  and  _662
REMARK  270  A    between atoms: _661  and  _664
REMARK  271  A    between atoms: _664  and  _665
REMARK  272  A    between atoms: _675  and  _677
REMARK  273  A    between atoms: _677  and  _678
REMARK  274  A    between atoms: _681  and  _683
REMARK  275  A    between atoms: _683  and  _684
REMARK  276  A    between atoms: _686  and  _688
REMARK  277  A    between atoms: _688  and  _689
REMARK  278  A    between atoms: _688  and  _691
REMARK  279  A    between atoms: _691  and  _692
REMARK  280  A    between atoms: _692  and  _693
REMARK  281  A    between atoms: _696  and  _698
REMARK  282  A    between atoms: _698  and  _699
REMARK  283  A    between atoms: _702  and  _704
REMARK  284  A    between atoms: _704  and  _705
REMARK  285  A    between atoms: _704  and  _707
REMARK  286  A    between atoms: _707  and  _708
REMARK  287  A    between atoms: _708  and  _709
REMARK  288  A    between atoms: _712  and  _714
REMARK  289  A    between atoms: _714  and  _715
REMARK  290  A    between atoms: _714  and  _717
REMARK  291  A    between atoms: _717  and  _718
REMARK  292  A    between atoms: _718  and  _719
REMARK  293  A    between atoms: _719  and  _720
REMARK  294  A    between atoms: _729  and  _731
REMARK  295  A    between atoms: _731  and  _732
REMARK  296  A    between atoms: _731  and  _734
REMARK  297  A    between atoms: _734  and  _735
REMARK  298  A    between atoms: _738  and  _740
REMARK  299  A    between atoms: _740  and  _741
REMARK  300  A    between atoms: _740  and  _743
REMARK  301  A    between atoms: _743  and  _744
REMARK  302  A    between atoms: _744  and  _745
REMARK  303  A    between atoms: _745  and  _746
REMARK  304  A    between atoms: _755  and  _757
REMARK  305  A    between atoms: _757  and  _758
REMARK  306  A    between atoms: _761  and  _763
REMARK  307  A    between atoms: _763  and  _764
REMARK  308  A    between atoms: _763  and  _766
REMARK  309  A    between atoms: _766  and  _767
REMARK  310  A    between atoms: _772  and  _773
REMARK  311  A    between atoms: _775  and  _777
REMARK  312  A    between atoms: _777  and  _778
REMARK  313  A    between atoms: _777  and  _780
REMARK  314  A    between atoms: _780  and  _781
REMARK  315  A    between atoms: _784  and  _786
REMARK  316  A    between atoms: _786  and  _787
REMARK  317  A    between atoms: _786  and  _789
REMARK  318  A    between atoms: _789  and  _790
REMARK  319  A    between atoms: _793  and  _795
REMARK  320  A    between atoms: _795  and  _796
REMARK  321  A    between atoms: _795  and  _798
REMARK  322  A    between atoms: _800  and  _802
REMARK  323  A    between atoms: _802  and  _803
REMARK  324  A    between atoms: _802  and  _805
REMARK  325  A    between atoms: _808  and  _810
REMARK  326  A    between atoms: _810  and  _811
REMARK  327  A    between atoms: _810  and  _813
REMARK  328  A    between atoms: _813  and  _814
REMARK  329  A    between atoms: _814  and  _815
REMARK  330  A    between atoms: _818  and  _820
REMARK  331  A    between atoms: _820  and  _821
REMARK  332  A    between atoms: _820  and  _823
REMARK  333  A    between atoms: _823  and  _824
REMARK  334  A    between atoms: _834  and  _836
REMARK  335  A    between atoms: _836  and  _837
REMARK  336  A    between atoms: _836  and  _839
REMARK  337  A    between atoms: _839  and  _840
REMARK  338  A    between atoms: _843  and  _845
REMARK  339  A    between atoms: _845  and  _846
REMARK  340  A    between atoms: _845  and  _848
REMARK  341  A    between atoms: _848  and  _849
REMARK  342  A    between atoms: _849  and  _850
REMARK  343  A    between atoms: _850  and  _851
REMARK  344  A    between atoms: _860  and  _862
REMARK  345  A    between atoms: _862  and  _863
REMARK  346  A    between atoms: _862  and  _865
REMARK  347  A    between atoms: _865  and  _866
REMARK  348  A    between atoms: _871  and  _872
REMARK  349  A    between atoms: _874  and  _876
REMARK  350  A    between atoms: _876  and  _877
REMARK  351  A    between atoms: _876  and  _879
REMARK  352  A    between atoms: _879  and  _880
REMARK  353  A    between atoms: _880  and  _881
REMARK  354  A    between atoms: _886  and  _888
REMARK  355  A    between atoms: _888  and  _889
REMARK  356  A    between atoms: _888  and  _891
REMARK  357  A    between atoms: _891  and  _892
REMARK  358  A    between atoms: _895  and  _897
REMARK  359  A    between atoms: _897  and  _898
REMARK  360  A    between atoms: _897  and  _900
REMARK  361  A    between atoms: _900  and  _901
REMARK  362  A    between atoms: _903  and  _905
REMARK  363  A    between atoms: _905  and  _906
REMARK  364  A    between atoms: _905  and  _908
REMARK  365  A    between atoms: _908  and  _909
REMARK  366  A    between atoms: _911  and  _913
REMARK  367  A    between atoms: _913  and  _914
REMARK  368  A    between atoms: _913  and  _916
REMARK  369  A    between atoms: _916  and  _917
REMARK  370  A    between atoms: _923  and  _925
REMARK  371  A    between atoms: _925  and  _926
REMARK  372  A    between atoms: _925  and  _928
REMARK  373  A    between atoms: _928  and  _929
REMARK  374  A    between atoms: _929  and  _930
REMARK  375  A    between atoms: _930  and  _931
REMARK  376  A    between atoms: _940  and  _942
REMARK  377  A    between atoms: _942  and  _943
REMARK  378  A    between atoms: _942  and  _945
REMARK  379  A    between atoms: _945  and  _946
REMARK  380  A    between atoms: _946  and  _947
REMARK  381  A    between atoms: _947  and  _948
REMARK  382  A    between atoms: _957  and  _959
REMARK  383  A    between atoms: _959  and  _960
REMARK  384  A    between atoms: _962  and  _964
REMARK  385  A    between atoms: _964  and  _965
REMARK  386  A    between atoms: _964  and  _967
REMARK  387  A    between atoms: _967  and  _968
REMARK  388  A    between atoms: _974  and  _975
REMARK  389  A    between atoms: _980  and  _982
REMARK  390  A    between atoms: _982  and  _983
REMARK  391  A    between atoms: _982  and  _985
REMARK  392  A    between atoms: _985  and  _986
REMARK  393  A    between atoms: _996  and  _998
REMARK  394  A    between atoms: _998  and  _999
REMARK  395  A    between atoms: _998  and  _1001
REMARK  396  A    between atoms: _1001  and  _1002
REMARK  397  A    between atoms: _1002  and  _1003
REMARK  398  A    between atoms: _1003  and  _1004
REMARK  399  A    between atoms: _1013  and  _1015
REMARK  400  A    between atoms: _1015  and  _1016
REMARK  401  A    between atoms: _1015  and  _1018
REMARK  402  A    between atoms: _1018  and  _1019
REMARK  403  A    between atoms: _1021  and  _1023
REMARK  404  A    between atoms: _1023  and  _1024
REMARK  405  A    between atoms: _1027  and  _1029
REMARK  406  A    between atoms: _1029  and  _1030
REMARK  407  A    between atoms: _1029  and  _1032
REMARK  408  A    between atoms: _1032  and  _1033
REMARK  409  A    between atoms: _1036  and  _1038
REMARK  410  A    between atoms: _1038  and  _1039
REMARK  411  A    between atoms: _1038  and  _1041
REMARK  412  A    between atoms: _1041  and  _1042
REMARK  413  A    between atoms: _1042  and  _1043
REMARK  414  A    between atoms: _1043  and  _1044
REMARK  415  A    between atoms: _1053  and  _1055
REMARK  416  A    between atoms: _1055  and  _1056
REMARK  417  A    between atoms: _1055  and  _1058
REMARK  418  A    between atoms: _1061  and  _1063
REMARK  419  A    between atoms: _1063  and  _1064
REMARK  420  A    between atoms: _1066  and  _1068
REMARK  421  A    between atoms: _1068  and  _1069
REMARK  422  A    between atoms: _1068  and  _1071
REMARK  423  A    between atoms: _1071  and  _1072
REMARK                            x       y       z     vdW  Elec       q    Type
REMARK                         _______ _______ _______ _____ _____    ______ ____
ROOT
ATOM      1  C   GLN A   2      10.503  40.079  44.725  0.00  0.00    +0.241 C 
ATOM      2  O   GLN A   2       9.450  40.259  45.315  0.00  0.00    -0.273 OA
ATOM      3  N   GLN A   3      10.617  39.487  43.552  0.00  0.00    -0.297 N 
ATOM      4  H   GLN A   3      11.547  39.456  43.087  0.00  0.00    +0.150 HD
ENDROOT
BRANCH   3   5
ATOM      5  CA  GLN A   3       9.464  38.872  42.889  0.00  0.00    +0.149 C 
BRANCH   5   6
ATOM      6  C   GLN A   3       9.791  37.464  42.408  0.00  0.00    +0.241 C 
ATOM      7  N   TYR A   4       8.836  36.577  42.649  0.00  0.00    -0.298 N 
ATOM      8  H   TYR A   4       7.955  36.893  43.102  0.00  0.00    +0.150 HD
ATOM      9  O   GLN A   3      10.883  37.204  41.874  0.00  0.00    -0.273 OA
BRANCH   7  10
ATOM     10  CA  TYR A   4       8.987  35.166  42.296  0.00  0.00    +0.141 C 
BRANCH  10  11
ATOM     11  C   TYR A   4       7.976  34.801  41.220  0.00  0.00    +0.227 C 
ATOM     12  O   TYR A   4       6.838  35.269  41.194  0.00  0.00    -0.286 OA
ENDBRANCH  10  11
BRANCH  10  13
ATOM     13  CB  TYR A   4       8.696  34.291  43.542  0.00  0.00    +0.054 C 
BRANCH  13  14
ATOM     14  CG  TYR A   4       9.703  34.318  44.660  0.00  0.00    -0.020 A 
ATOM     15  CD2 TYR A   4      10.023  35.441  45.392  0.00  0.00    -0.001 A 
ATOM     16  CE2 TYR A   4      10.990  35.415  46.381  0.00  0.00    +0.036 A 
ATOM     17  CZ  TYR A   4      11.624  34.232  46.693  0.00  0.00    +0.134 A 
ATOM     18  CE1 TYR A   4      11.319  33.073  45.996  0.00  0.00    +0.036 A 
ATOM     19  CD1 TYR A   4      10.379  33.135  44.985  0.00  0.00    -0.001 A 
BRANCH  17  20
ATOM     20  OH  TYR A   4      12.589  34.151  47.693  0.00  0.00    -0.506 OA
ATOM     21  HH  TYR A   4      12.709  35.042  48.107  0.00  0.00    +0.292 HD
ENDBRANCH  17  20
ENDBRANCH  13  14
ENDBRANCH  10  13
ENDBRANCH   7  10
ENDBRANCH   5   6
BRANCH   5  22
ATOM     22  CB  GLN A   3       8.940  39.704  41.727  0.00  0.00    +0.039 C 
BRANCH  22  23
ATOM     23  CG  GLN A   3      10.080  40.382  40.992  0.00  0.00    +0.087 C 
BRANCH  23  24
ATOM     24  CD  GLN A   3       9.641  41.748  40.493  0.00  0.00    +0.219 C 
ATOM     25  NE2 GLN A   3       8.335  41.946  40.544  0.00  0.00    -0.329 N 
ATOM     26 HE21 GLN A   3       7.708  41.192  40.891  0.00  0.00    +0.145 HD
ATOM     27 HE22 GLN A   3       7.935  42.855  40.237  0.00  0.00    +0.145 HD
ATOM     28  OE1 GLN A   3      10.509  42.542  40.107  0.00  0.00    -0.275 OA
ENDBRANCH  23  24
ENDBRANCH  22  23
ENDBRANCH   5  22
ENDBRANCH   3   5
BRANCH   1  29
ATOM     29  CA  GLN A   2      11.808  40.670  45.267  0.00  0.00    +0.149 C 
BRANCH  29  32
ATOM     30  C   TYR A   1      12.859  42.866  44.912  0.00  0.00    +0.239 C 
ATOM     31  O   TYR A   1      13.959  42.485  45.331  0.00  0.00    -0.274 OA
ATOM     32  N   GLN A   2      11.825  42.054  44.875  0.00  0.00    -0.297 N 
ATOM     33  H   GLN A   2      10.930  42.453  44.527  0.00  0.00    +0.150 HD
BRANCH  30  34
ATOM     34  CA  TYR A   1      12.610  44.264  44.293  0.00  0.00    +0.149 C 
BRANCH  34  35
ATOM     35  N   TYR A   1      13.288  45.309  45.006  0.00  0.00    -0.238 NA
ATOM     36  H   TYR A   1      14.322  45.345  44.896  0.00  0.00    +0.142 HD
ENDBRANCH  34  35
BRANCH  34  37
ATOM     37  CB  TYR A   1      13.090  44.126  42.848  0.00  0.00    +0.053 C 
BRANCH  37  38
ATOM     38  CG  TYR A   1      13.549  45.316  42.073  0.00  0.00    -0.020 A 
ATOM     39  CD2 TYR A   1      14.826  45.846  42.227  0.00  0.00    -0.001 A 
ATOM     40  CE2 TYR A   1      15.249  46.935  41.490  0.00  0.00    +0.036 A 
ATOM     41  CZ  TYR A   1      14.400  47.504  40.566  0.00  0.00    +0.134 A 
ATOM     42  CE1 TYR A   1      13.136  46.992  40.375  0.00  0.00    +0.036 A 
ATOM     43  CD1 TYR A   1      12.723  45.904  41.117  0.00  0.00    -0.001 A 
BRANCH  41  44
ATOM     44  OH  TYR A   1      14.813  48.589  39.826  0.00  0.00    -0.506 OA
ATOM     45  HH  TYR A   1      15.738  48.830  40.083  0.00  0.00    +0.292 HD
ENDBRANCH  41  44
ENDBRANCH  37  38
ENDBRANCH  34  37
ENDBRANCH  30  34
ENDBRANCH  29  32
BRANCH  29  46
ATOM     46  CB  GLN A   2      11.888  40.379  46.735  0.00  0.00    +0.039 C 
BRANCH  46  47
ATOM     47  CG  GLN A   2      12.176  38.895  47.013  0.00  0.00    +0.087 C 
BRANCH  47  48
ATOM     48  CD  GLN A   2      13.647  38.698  47.333  0.00  0.00    +0.219 C 
ATOM     49  OE1 GLN A   2      14.040  37.692  47.913  0.00  0.00    -0.275 OA
ATOM     50  NE2 GLN A   2      14.458  39.690  46.960  0.00  0.00    -0.329 N 
ATOM     51 HE21 GLN A   2      15.477  39.631  47.159  0.00  0.00    +0.145 HD
ATOM     52 HE22 GLN A   2      14.071  40.522  46.470  0.00  0.00    +0.145 HD
ENDBRANCH  47  48
ENDBRANCH  46  47
ENDBRANCH  29  46
ENDBRANCH   1  29
TORSDOF 20
REMARK  Name = ../refined-set-2016/1fo0/1fo0_pocket.pdb
REMARK  423 active torsions:
REMARK  status: ('A' for Active; 'I' for Inactive)
REMARK    1  A    between atoms: _1  and  _3
REMARK    2  A    between atoms: _3  and  _4
REMARK    3  A    between atoms: _3  and  _6
REMARK    4  A    between atoms: _6  and  _7
REMARK    5  A    between atoms: _10  and  _12
REMARK    6  A    between atoms: _12  and  _13
REMARK    7  A    between atoms: _12  and  _15
REMARK    8  A    between atoms: _15  and  _16
REMARK    9  A    between atoms: _16  and  _17
REMARK   10  A    between atoms: _17  and  _18
REMARK   11  A    between atoms: _27  and  _29
REMARK   12  A    between atoms: _29  and  _30
REMARK   13  A    between atoms: _29  and  _32
REMARK   14  A    between atoms: _32  and  _33
REMARK   15  A    between atoms: _38  and  _39
REMARK   16  A    between atoms: _41  and  _43
REMARK   17  A    between atoms: _43  and  _44
REMARK   18  A    between atoms: _43  and  _46
REMARK   19  A    between atoms: _46  and  _47
REMARK   20  A    between atoms: _53  and  _55
REMARK   21  A    between atoms: _55  and  _56
REMARK   22  A    between atoms: _55  and  _58
REMARK   23  A    between atoms: _61  and  _63
REMARK   24  A    between atoms: _63  and  _64
REMARK   25  A    between atoms: _63  and  _66
REMARK   26  A    between atoms: _66  and  _67
REMARK   27  A    between atoms: _70  and  _72
REMARK   28  A    between atoms: _72  and  _73
REMARK   29  A    between atoms: _72  and  _75
REMARK   30  A    between atoms: _75  and  _76
REMARK   31  A    between atoms: _81  and  _82
REMARK   32  A    between atoms: _84  and  _86
REMARK   33  A    between atoms: _86  and  _87
REMARK   34  A    between atoms: _86  and  _89
REMARK   35  A    between atoms: _89  and  _90
REMARK   36  A    between atoms: _90  and  _91
REMARK   37  A    between atoms: _93  and  _95
REMARK   38  A    between atoms: _95  and  _96
REMARK   39  A    between atoms: _95  and  _98
REMARK   40  A    between atoms: _98  and  _99
REMARK   41  A    between atoms: _99  and  _100
REMARK   42  A    between atoms: _103  and  _105
REMARK   43  A    between atoms: _105  and  _106
REMARK   44  A    between atoms: _105  and  _108
REMARK   45  A    between atoms: _111  and  _113
REMARK   46  A    between atoms: _113  and  _114
REMARK   47  A    between atoms: _116  and  _118
REMARK   48  A    between atoms: _118  and  _119
REMARK   49  A    between atoms: _118  and  _121
REMARK   50  A    between atoms: _121  and  _122
REMARK   51  A    between atoms: _128  and  _130
REMARK   52  A    between atoms: _130  and  _131
REMARK   53  A    between atoms: _130  and  _133
REMARK   54  A    between atoms: _136  and  _138
REMARK   55  A    between atoms: _138  and  _139
REMARK   56  A    between atoms: _138  and  _141
REMARK   57  A    between atoms: _141  and  _142
REMARK   58  A    between atoms: _148  and  _150
REMARK   59  A    between atoms: _150  and  _151
REMARK   60  A    between atoms: _150  and  _153
REMARK   61  A    between atoms: _153  and  _154
REMARK   62  A    between atoms: _159  and  _160
REMARK   63  A    between atoms: _162  and  _164
REMARK   64  A    between atoms: _164  and  _165
REMARK   65  A    between atoms: _164  and  _167
REMARK   66  A    between atoms: _167  and  _168
REMARK   67  A    between atoms: _168  and  _169
REMARK   68  A    between atoms: _171  and  _173
REMARK   69  A    between atoms: _173  and  _174
REMARK   70  A    between atoms: _173  and  _176
REMARK   71  A    between atoms: _176  and  _177
REMARK   72  A    between atoms: _177  and  _178
REMARK   73  A    between atoms: _181  and  _183
REMARK   74  A    between atoms: _183  and  _184
REMARK   75  A    between atoms: _183  and  _186
REMARK   76  A    between atoms: _186  and  _187
REMARK   77  A    between atoms: _192  and  _193
REMARK   78  A    between atoms: _195  and  _197
REMARK   79  A    between atoms: _197  and  _198
REMARK   80  A    between atoms: _197  and  _200
REMARK   81  A    between atoms: _200  and  _201
REMARK   82  A    between atoms: _201  and  _202
REMARK   83  A    between atoms: _202  and  _203
REMARK   84  A    between atoms: _212  and  _214
REMARK   85  A    between atoms: _214  and  _215
REMARK   86  A    between atoms: _214  and  _217
REMARK   87  A    between atoms: _217  and  _218
REMARK   88  A    between atoms: _218  and  _219
REMARK   89  A    between atoms: _222  and  _224
REMARK   90  A    between atoms: _224  and  _225
REMARK   91  A    between atoms: _224  and  _227
REMARK   92  A    between atoms: _227  and  _228
REMARK   93  A    between atoms: _228  and  _229
REMARK   94  A    between atoms: _234  and  _236
REMARK   95  A    between atoms: _236  and  _237
REMARK   96  A    between atoms: _236  and  _239
REMARK   97  A    between atoms: _239  and  _240
REMARK   98  A    between atoms: _240  and  _241
REMARK   99  A    between atoms: _241  and  _242
REMARK  100  A    between atoms: _242  and  _243
REMARK  101  A    between atoms: _247  and  _249
REMARK  102  A    between atoms: _249  and  _250
REMARK  103  A    between atoms: _253  and  _255
REMARK  104  A    between atoms: _255  and  _256
REMARK  105  A    between atoms: _255  and  _258
REMARK  106  A    between atoms: _258  and  _259
REMARK  107  A    between atoms: _259  and  _260
REMARK  108  A    between atoms: _260  and  _261
REMARK  109  A    between atoms: _261  and  _262
REMARK  110  A    between atoms: _266  and  _268
REMARK  111  A    between atoms: _268  and  _269
REMARK  112  A    between atoms: _271  and  _273
REMARK  113  A    between atoms: _273  and  _274
REMARK  114  A    between atoms: _273  and  _276
REMARK  115  A    between atoms: _276  and  _277
REMARK  116  A    between atoms: _282  and  _284
REMARK  117  A    between atoms: _284  and  _285
REMARK  118  A    between atoms: _284  and  _287
REMARK  119  A    between atoms: _287  and  _288
REMARK  120  A    between atoms: _288  and  _289
REMARK  121  A    between atoms: _292  and  _294
REMARK  122  A    between atoms: _294  and  _295
REMARK  123  A    between atoms: _294  and  _297
REMARK  124  A    between atoms: _297  and  _298
REMARK  125  A    between atoms: _298  and  _299
REMARK  126  A    between atoms: _304  and  _306
REMARK  127  A    between atoms: _306  and  _307
REMARK  128  A    between atoms: _306  and  _309
REMARK  129  A    between atoms: _309  and  _310
REMARK  130  A    between atoms: _312  and  _314
REMARK  131  A    between atoms: _314  and  _315
REMARK  132  A    between atoms: _314  and  _317
REMARK  133  A    between atoms: _317  and  _318
REMARK  134  A    between atoms: _324  and  _326
REMARK  135  A    between atoms: _326  and  _327
REMARK  136  A    between atoms: _326  and  _329
REMARK  137  A    between atoms: _329  and  _330
REMARK  138  A    between atoms: _330  and  _331
REMARK  139  A    between atoms: _331  and  _332
REMARK  140  A    between atoms: _341  and  _343
REMARK  141  A    between atoms: _343  and  _344
REMARK  142  A    between atoms: _343  and  _346
REMARK  143  A    between atoms: _349  and  _351
REMARK  144  A    between atoms: _351  and  _352
REMARK  145  A    between atoms: _351  and  _354
REMARK  146  A    between atoms: _354  and  _355
REMARK  147  A    between atoms: _358  and  _360
REMARK  148  A    between atoms: _360  and  _361
REMARK  149  A    between atoms: _360  and  _363
REMARK  150  A    between atoms: _363  and  _364
REMARK  151  A    between atoms: _367  and  _369
REMARK  152  A    between atoms: _369  and  _370
REMARK  153  A    between atoms: _369  and  _372
REMARK  154  A    between atoms: _372  and  _373
REMARK  155  A    between atoms: _373  and  _374
REMARK  156  A    between atoms: _374  and  _375
REMARK  157  A    between atoms: _384  and  _386
REMARK  158  A    between atoms: _386  and  _387
REMARK  159  A    between atoms: _386  and  _389
REMARK  160  A    between atoms: _389  and  _390
REMARK  161  A    between atoms: _393  and  _395
REMARK  162  A    between atoms: _395  and  _396
REMARK  163  A    between atoms: _395  and  _398
REMARK  164  A    between atoms: _398  and  _399
REMARK  165  A    between atoms: _402  and  _404
REMARK  166  A    between atoms: _404  and  _405
REMARK  167  A    between atoms: _404  and  _407
REMARK  168  A    between atoms: _407  and  _408
REMARK  169  A    between atoms: _411  and  _413
REMARK  170  A    between atoms: _413  and  _414
REMARK  171  A    between atoms: _413  and  _416
REMARK  172  A    between atoms: _416  and  _417
REMARK  173  A    between atoms: _422  and  _423
REMARK  174  A    between atoms: _425  and  _427
REMARK  175  A    between atoms: _427  and  _428
REMARK  176  A    between atoms: _427  and  _430
REMARK  177  A    between atoms: _430  and  _431
REMARK  178  A    between atoms: _436  and  _437
REMARK  179  A    between atoms: _439  and  _441
REMARK  180  A    between atoms: _441  and  _442
REMARK  181  A    between atoms: _441  and  _444
REMARK  182  A    between atoms: _444  and  _445
REMARK  183  A    between atoms: _448  and  _450
REMARK  184  A    between atoms: _450  and  _451
REMARK  185  A    between atoms: _450  and  _453
REMARK  186  A    between atoms: _456  and  _458
REMARK  187  A    between atoms: _458  and  _459
REMARK  188  A    between atoms: _458  and  _461
REMARK  189  A    between atoms: _461  and  _462
REMARK  190  A    between atoms: _465  and  _467
REMARK  191  A    between atoms: _467  and  _468
REMARK  192  A    between atoms: _467  and  _470
REMARK  193  A    between atoms: _470  and  _471
REMARK  194  A    between atoms: _473  and  _475
REMARK  195  A    between atoms: _475  and  _476
REMARK  196  A    between atoms: _478  and  _480
REMARK  197  A    between atoms: _480  and  _481
REMARK  198  A    between atoms: _480  and  _483
REMARK  199  A    between atoms: _483  and  _484
REMARK  200  A    between atoms: _489  and  _490
REMARK  201  A    between atoms: _492  and  _494
REMARK  202  A    between atoms: _494  and  _495
REMARK  203  A    between atoms: _494  and  _497
REMARK  204  A    between atoms: _497  and  _498
REMARK  205  A    between atoms: _498  and  _499
REMARK  206  A    between atoms: _504  and  _506
REMARK  207  A    between atoms: _506  and  _507
REMARK  208  A    between atoms: _506  and  _509
REMARK  209  A    between atoms: _509  and  _510
REMARK  210  A    between atoms: _510  and  _511
REMARK  211  A    between atoms: _516  and  _518
REMARK  212  A    between atoms: _518  and  _519
REMARK  213  A    between atoms: _518  and  _521
REMARK  214  A    between atoms: _521  and  _522
REMARK  215  A    between atoms: _527  and  _528
REMARK  216  A    between atoms: _530  and  _532
REMARK  217  A    between atoms: _532  and  _533
REMARK  218  A    between atoms: _532  and  _535
REMARK  219  A    between atoms: _535  and  _536
REMARK  220  A    between atoms: _541  and  _542
REMARK  221  A    between atoms: _544  and  _546
REMARK  222  A    between atoms: _546  and  _547
REMARK  223  A    between atoms: _546  and  _549
REMARK  224  A    between atoms: _549  and  _550
REMARK  225  A    between atoms: _555  and  _556
REMARK  226  A    between atoms: _558  and  _560
REMARK  227  A    between atoms: _560  and  _561
REMARK  228  A    between atoms: _560  and  _563
REMARK  229  A    between atoms: _563  and  _564
REMARK  230  A    between atoms: _567  and  _569
REMARK  231  A    between atoms: _569  and  _570
REMARK  232  A    between atoms: _569  and  _572
REMARK  233  A    between atoms: _572  and  _573
REMARK  234  A    between atoms: _583  and  _585
REMARK  235  A    between atoms: _585  and  _586
REMARK  236  A    between atoms: _589  and  _591
REMARK  237  A    between atoms: _591  and  _592
REMARK  238  A    between atoms: _595  and  _597
REMARK  239  A    between atoms: _597  and  _598
REMARK  240  A    between atoms: _597  and  _600
REMARK  241  A    between atoms: _600  and  _601
REMARK  242  A    between atoms: _604  and  _606
REMARK  243  A    between atoms: _606  and  _607
REMARK  244  A    between atoms: _606  and  _609
REMARK  245  A    between atoms: _609  and  _610
REMARK  246  A    between atoms: _613  and  _615
REMARK  247  A    between atoms: _615  and  _616
REMARK  248  A    between atoms: _615  and  _618
REMARK  249  A    between atoms: _618  and  _619
REMARK  250  A    between atoms: _622  and  _624
REMARK  251  A    between atoms: _624  and  _625
REMARK  252  A    between atoms: _624  and  _627
REMARK  253  A    between atoms: _627  and  _628
REMARK  254  A    between atoms: _628  and  _629
REMARK  255  A    between atoms: _629  and  _630
REMARK  256  A    between atoms: _630  and  _631
REMARK  257  A    between atoms: _635  and  _637
REMARK  258  A    between atoms: _637  and  _638
REMARK  259  A    between atoms: _637  and  _640
REMARK  260  A    between atoms: _640  and  _641
REMARK  261  A    between atoms: _646  and  _648
REMARK  262  A    between atoms: _648  and  _649
REMARK  263  A    between atoms: _648  and  _651
REMARK  264  A    between atoms: _651  and  _652
REMARK  265  A    between atoms: _652  and  _653
REMARK  266  A    between atoms: _653  and  _654
REMARK  267  A    between atoms: _654  and  _655
REMARK  268  A    between atoms: _659  and  _661
REMARK  269  A    between atoms: _661  and  _662
REMARK  270  A    between atoms: _661  and  _664
REMARK  271  A    between atoms: _664  and  _665
REMARK  272  A    between atoms: _675  and  _677
REMARK  273  A    between atoms: _677  and  _678
REMARK  274  A    between atoms: _681  and  _683
REMARK  275  A    between atoms: _683  and  _684
REMARK  276  A    between atoms: _686  and  _688
REMARK  277  A    between atoms: _688  and  _689
REMARK  278  A    between atoms: _688  and  _691
REMARK  279  A    between atoms: _691  and  _692
REMARK  280  A    between atoms: _692  and  _693
REMARK  281  A    between atoms: _696  and  _698
REMARK  282  A    between atoms: _698  and  _699
REMARK  283  A    between atoms: _702  and  _704
REMARK  284  A    between atoms: _704  and  _705
REMARK  285  A    between atoms: _704  and  _707
REMARK  286  A    between atoms: _707  and  _708
REMARK  287  A    between atoms: _708  and  _709
REMARK  288  A    between atoms: _712  and  _714
REMARK  289  A    between atoms: _714  and  _715
REMARK  290  A    between atoms: _714  and  _717
REMARK  291  A    between atoms: _717  and  _718
REMARK  292  A    between atoms: _718  and  _719
REMARK  293  A    between atoms: _719  and  _720
REMARK  294  A    between atoms: _729  and  _731
REMARK  295  A    between atoms: _731  and  _732
REMARK  296  A    between atoms: _731  and  _734
REMARK  297  A    between atoms: _734  and  _735
REMARK  298  A    between atoms: _738  and  _740
REMARK  299  A    between atoms: _740  and  _741
REMARK  300  A    between atoms: _740  and  _743
REMARK  301  A    between atoms: _743  and  _744
REMARK  302  A    between atoms: _744  and  _745
REMARK  303  A    between atoms: _745  and  _746
REMARK  304  A    between atoms: _755  and  _757
REMARK  305  A    between atoms: _757  and  _758
REMARK  306  A    between atoms: _761  and  _763
REMARK  307  A    between atoms: _763  and  _764
REMARK  308  A    between atoms: _763  and  _766
REMARK  309  A    between atoms: _766  and  _767
REMARK  310  A    between atoms: _772  and  _773
REMARK  311  A    between atoms: _775  and  _777
REMARK  312  A    between atoms: _777  and  _778
REMARK  313  A    between atoms: _777  and  _780
REMARK  314  A    between atoms: _780  and  _781
REMARK  315  A    between atoms: _784  and  _786
REMARK  316  A    between atoms: _786  and  _787
REMARK  317  A    between atoms: _786  and  _789
REMARK  318  A    between atoms: _789  and  _790
REMARK  319  A    between atoms: _793  and  _795
REMARK  320  A    between atoms: _795  and  _796
REMARK  321  A    between atoms: _795  and  _798
REMARK  322  A    between atoms: _800  and  _802
REMARK  323  A    between atoms: _802  and  _803
REMARK  324  A    between atoms: _802  and  _805
REMARK  325  A    between atoms: _808  and  _810
REMARK  326  A    between atoms: _810  and  _811
REMARK  327  A    between atoms: _810  and  _813
REMARK  328  A    between atoms: _813  and  _814
REMARK  329  A    between atoms: _814  and  _815
REMARK  330  A    between atoms: _818  and  _820
REMARK  331  A    between atoms: _820  and  _821
REMARK  332  A    between atoms: _820  and  _823
REMARK  333  A    between atoms: _823  and  _824
REMARK  334  A    between atoms: _834  and  _836
REMARK  335  A    between atoms: _836  and  _837
REMARK  336  A    between atoms: _836  and  _839
REMARK  337  A    between atoms: _839  and  _840
REMARK  338  A    between atoms: _843  and  _845
REMARK  339  A    between atoms: _845  and  _846
REMARK  340  A    between atoms: _845  and  _848
REMARK  341  A    between atoms: _848  and  _849
REMARK  342  A    between atoms: _849  and  _850
REMARK  343  A    between atoms: _850  and  _851
REMARK  344  A    between atoms: _860  and  _862
REMARK  345  A    between atoms: _862  and  _863
REMARK  346  A    between atoms: _862  and  _865
REMARK  347  A    between atoms: _865  and  _866
REMARK  348  A    between atoms: _871  and  _872
REMARK  349  A    between atoms: _874  and  _876
REMARK  350  A    between atoms: _876  and  _877
REMARK  351  A    between atoms: _876  and  _879
REMARK  352  A    between atoms: _879  and  _880
REMARK  353  A    between atoms: _880  and  _881
REMARK  354  A    between atoms: _886  and  _888
REMARK  355  A    between atoms: _888  and  _889
REMARK  356  A    between atoms: _888  and  _891
REMARK  357  A    between atoms: _891  and  _892
REMARK  358  A    between atoms: _895  and  _897
REMARK  359  A    between atoms: _897  and  _898
REMARK  360  A    between atoms: _897  and  _900
REMARK  361  A    between atoms: _900  and  _901
REMARK  362  A    between atoms: _903  and  _905
REMARK  363  A    between atoms: _905  and  _906
REMARK  364  A    between atoms: _905  and  _908
REMARK  365  A    between atoms: _908  and  _909
REMARK  366  A    between atoms: _911  and  _913
REMARK  367  A    between atoms: _913  and  _914
REMARK  368  A    between atoms: _913  and  _916
REMARK  369  A    between atoms: _916  and  _917
REMARK  370  A    between atoms: _923  and  _925
REMARK  371  A    between atoms: _925  and  _926
REMARK  372  A    between atoms: _925  and  _928
REMARK  373  A    between atoms: _928  and  _929
REMARK  374  A    between atoms: _929  and  _930
REMARK  375  A    between atoms: _930  and  _931
REMARK  376  A    between atoms: _940  and  _942
REMARK  377  A    between atoms: _942  and  _943
REMARK  378  A    between atoms: _942  and  _945
REMARK  379  A    between atoms: _945  and  _946
REMARK  380  A    between atoms: _946  and  _947
REMARK  381  A    between atoms: _947  and  _948
REMARK  382  A    between atoms: _957  and  _959
REMARK  383  A    between atoms: _959  and  _960
REMARK  384  A    between atoms: _962  and  _964
REMARK  385  A    between atoms: _964  and  _965
REMARK  386  A    between atoms: _964  and  _967
REMARK  387  A    between atoms: _967  and  _968
REMARK  388  A    between atoms: _974  and  _975
REMARK  389  A    between atoms: _980  and  _982
REMARK  390  A    between atoms: _982  and  _983
REMARK  391  A    between atoms: _982  and  _985
REMARK  392  A    between atoms: _985  and  _986
REMARK  393  A    between atoms: _996  and  _998
REMARK  394  A    between atoms: _998  and  _999
REMARK  395  A    between atoms: _998  and  _1001
REMARK  396  A    between atoms: _1001  and  _1002
REMARK  397  A    between atoms: _1002  and  _1003
REMARK  398  A    between atoms: _1003  and  _1004
REMARK  399  A    between atoms: _1013  and  _1015
REMARK  400  A    between atoms: _1015  and  _1016
REMARK  401  A    between atoms: _1015  and  _1018
REMARK  402  A    between atoms: _1018  and  _1019
REMARK  403  A    between atoms: _1021  and  _1023
REMARK  404  A    between atoms: _1023  and  _1024
REMARK  405  A    between atoms: _1027  and  _1029
REMARK  406  A    between atoms: _1029  and  _1030
REMARK  407  A    between atoms: _1029  and  _1032
REMARK  408  A    between atoms: _1032  and  _1033
REMARK  409  A    between atoms: _1036  and  _1038
REMARK  410  A    between atoms: _1038  and  _1039
REMARK  411  A    between atoms: _1038  and  _1041
REMARK  412  A    between atoms: _1041  and  _1042
REMARK  413  A    between atoms: _1042  and  _1043
REMARK  414  A    between atoms: _1043  and  _1044
REMARK  415  A    between atoms: _1053  and  _1055
REMARK  416  A    between atoms: _1055  and  _1056
REMARK  417  A    between atoms: _1055  and  _1058
REMARK  418  A    between atoms: _1061  and  _1063
REMARK  419  A    between atoms: _1063  and  _1064
REMARK  420  A    between atoms: _1066  and  _1068
REMARK  421  A    between atoms: _1068  and  _1069
REMARK  422  A    between atoms: _1068  and  _1071
REMARK  423  A    between atoms: _1071  and  _1072
REMARK                            x       y       z     vdW  Elec       q    Type
REMARK                         _______ _______ _______ _____ _____    ______ ____
ROOT
ATOM      1  CG  TYR A   1       5.812  27.509  40.110  0.00  0.00    -0.020 A 
ATOM      2  CD2 TYR A   1       4.621  26.785  40.213  0.00  0.00    -0.001 A 
ATOM      3  CE2 TYR A   1       4.602  25.393  40.256  0.00  0.00    +0.036 A 
ATOM      4  CZ  TYR A   1       5.791  24.717  40.217  0.00  0.00    +0.134 A 
ATOM      5  CE1 TYR A   1       7.001  25.366  40.147  0.00  0.00    +0.036 A 
ATOM      6  CD1 TYR A   1       6.998  26.753  40.089  0.00  0.00    -0.001 A 
ENDROOT
BRANCH   4   7
ATOM      7  OH  TYR A   1       5.725  23.351  40.265  0.00  0.00    -0.506 OA
ATOM      8  HH  TYR A   1       5.202  23.020  39.493  0.00  0.00    +0.292 HD
ENDBRANCH   4   7
BRANCH   1   9
ATOM      9  CB  TYR A   1       5.789  28.974  40.140  0.00  0.00    +0.051 C 
BRANCH   9  10
ATOM     10  CA  TYR A   1       6.674  29.662  39.148  0.00  0.00    +0.137 C 
BRANCH  10  11
ATOM     11  N   TYR A   1       6.563  31.150  39.190  0.00  0.00    -0.239 NA
ATOM     12  H   TYR A   1       5.629  31.605  39.136  0.00  0.00    +0.142 HD
ENDBRANCH  10  11
BRANCH  10  13
ATOM     13  C   TYR A   1       6.179  29.280  37.758  0.00  0.00    +0.224 C 
ATOM     14  O   TYR A   1       5.148  29.792  37.356  0.00  0.00    -0.287 OA
ENDBRANCH  10  13
ENDBRANCH   9  10
ENDBRANCH   1   9
TORSDOF 5
REMARK  Name = ../refined-set-2016/1fo0/1fo0_pocket.pdb
REMARK  423 active torsions:
REMARK  status: ('A' for Active; 'I' for Inactive)
REMARK    1  A    between atoms: _1  and  _3
REMARK    2  A    between atoms: _3  and  _4
REMARK    3  A    between atoms: _3  and  _6
REMARK    4  A    between atoms: _6  and  _7
REMARK    5  A    between atoms: _10  and  _12
REMARK    6  A    between atoms: _12  and  _13
REMARK    7  A    between atoms: _12  and  _15
REMARK    8  A    between atoms: _15  and  _16
REMARK    9  A    between atoms: _16  and  _17
REMARK   10  A    between atoms: _17  and  _18
REMARK   11  A    between atoms: _27  and  _29
REMARK   12  A    between atoms: _29  and  _30
REMARK   13  A    between atoms: _29  and  _32
REMARK   14  A    between atoms: _32  and  _33
REMARK   15  A    between atoms: _38  and  _39
REMARK   16  A    between atoms: _41  and  _43
REMARK   17  A    between atoms: _43  and  _44
REMARK   18  A    between atoms: _43  and  _46
REMARK   19  A    between atoms: _46  and  _47
REMARK   20  A    between atoms: _53  and  _55
REMARK   21  A    between atoms: _55  and  _56
REMARK   22  A    between atoms: _55  and  _58
REMARK   23  A    between atoms: _61  and  _63
REMARK   24  A    between atoms: _63  and  _64
REMARK   25  A    between atoms: _63  and  _66
REMARK   26  A    between atoms: _66  and  _67
REMARK   27  A    between atoms: _70  and  _72
REMARK   28  A    between atoms: _72  and  _73
REMARK   29  A    between atoms: _72  and  _75
REMARK   30  A    between atoms: _75  and  _76
REMARK   31  A    between atoms: _81  and  _82
REMARK   32  A    between atoms: _84  and  _86
REMARK   33  A    between atoms: _86  and  _87
REMARK   34  A    between atoms: _86  and  _89
REMARK   35  A    between atoms: _89  and  _90
REMARK   36  A    between atoms: _90  and  _91
REMARK   37  A    between atoms: _93  and  _95
REMARK   38  A    between atoms: _95  and  _96
REMARK   39  A    between atoms: _95  and  _98
REMARK   40  A    between atoms: _98  and  _99
REMARK   41  A    between atoms: _99  and  _100
REMARK   42  A    between atoms: _103  and  _105
REMARK   43  A    between atoms: _105  and  _106
REMARK   44  A    between atoms: _105  and  _108
REMARK   45  A    between atoms: _111  and  _113
REMARK   46  A    between atoms: _113  and  _114
REMARK   47  A    between atoms: _116  and  _118
REMARK   48  A    between atoms: _118  and  _119
REMARK   49  A    between atoms: _118  and  _121
REMARK   50  A    between atoms: _121  and  _122
REMARK   51  A    between atoms: _128  and  _130
REMARK   52  A    between atoms: _130  and  _131
REMARK   53  A    between atoms: _130  and  _133
REMARK   54  A    between atoms: _136  and  _138
REMARK   55  A    between atoms: _138  and  _139
REMARK   56  A    between atoms: _138  and  _141
REMARK   57  A    between atoms: _141  and  _142
REMARK   58  A    between atoms: _148  and  _150
REMARK   59  A    between atoms: _150  and  _151
REMARK   60  A    between atoms: _150  and  _153
REMARK   61  A    between atoms: _153  and  _154
REMARK   62  A    between atoms: _159  and  _160
REMARK   63  A    between atoms: _162  and  _164
REMARK   64  A    between atoms: _164  and  _165
REMARK   65  A    between atoms: _164  and  _167
REMARK   66  A    between atoms: _167  and  _168
REMARK   67  A    between atoms: _168  and  _169
REMARK   68  A    between atoms: _171  and  _173
REMARK   69  A    between atoms: _173  and  _174
REMARK   70  A    between atoms: _173  and  _176
REMARK   71  A    between atoms: _176  and  _177
REMARK   72  A    between atoms: _177  and  _178
REMARK   73  A    between atoms: _181  and  _183
REMARK   74  A    between atoms: _183  and  _184
REMARK   75  A    between atoms: _183  and  _186
REMARK   76  A    between atoms: _186  and  _187
REMARK   77  A    between atoms: _192  and  _193
REMARK   78  A    between atoms: _195  and  _197
REMARK   79  A    between atoms: _197  and  _198
REMARK   80  A    between atoms: _197  and  _200
REMARK   81  A    between atoms: _200  and  _201
REMARK   82  A    between atoms: _201  and  _202
REMARK   83  A    between atoms: _202  and  _203
REMARK   84  A    between atoms: _212  and  _214
REMARK   85  A    between atoms: _214  and  _215
REMARK   86  A    between atoms: _214  and  _217
REMARK   87  A    between atoms: _217  and  _218
REMARK   88  A    between atoms: _218  and  _219
REMARK   89  A    between atoms: _222  and  _224
REMARK   90  A    between atoms: _224  and  _225
REMARK   91  A    between atoms: _224  and  _227
REMARK   92  A    between atoms: _227  and  _228
REMARK   93  A    between atoms: _228  and  _229
REMARK   94  A    between atoms: _234  and  _236
REMARK   95  A    between atoms: _236  and  _237
REMARK   96  A    between atoms: _236  and  _239
REMARK   97  A    between atoms: _239  and  _240
REMARK   98  A    between atoms: _240  and  _241
REMARK   99  A    between atoms: _241  and  _242
REMARK  100  A    between atoms: _242  and  _243
REMARK  101  A    between atoms: _247  and  _249
REMARK  102  A    between atoms: _249  and  _250
REMARK  103  A    between atoms: _253  and  _255
REMARK  104  A    between atoms: _255  and  _256
REMARK  105  A    between atoms: _255  and  _258
REMARK  106  A    between atoms: _258  and  _259
REMARK  107  A    between atoms: _259  and  _260
REMARK  108  A    between atoms: _260  and  _261
REMARK  109  A    between atoms: _261  and  _262
REMARK  110  A    between atoms: _266  and  _268
REMARK  111  A    between atoms: _268  and  _269
REMARK  112  A    between atoms: _271  and  _273
REMARK  113  A    between atoms: _273  and  _274
REMARK  114  A    between atoms: _273  and  _276
REMARK  115  A    between atoms: _276  and  _277
REMARK  116  A    between atoms: _282  and  _284
REMARK  117  A    between atoms: _284  and  _285
REMARK  118  A    between atoms: _284  and  _287
REMARK  119  A    between atoms: _287  and  _288
REMARK  120  A    between atoms: _288  and  _289
REMARK  121  A    between atoms: _292  and  _294
REMARK  122  A    between atoms: _294  and  _295
REMARK  123  A    between atoms: _294  and  _297
REMARK  124  A    between atoms: _297  and  _298
REMARK  125  A    between atoms: _298  and  _299
REMARK  126  A    between atoms: _304  and  _306
REMARK  127  A    between atoms: _306  and  _307
REMARK  128  A    between atoms: _306  and  _309
REMARK  129  A    between atoms: _309  and  _310
REMARK  130  A    between atoms: _312  and  _314
REMARK  131  A    between atoms: _314  and  _315
REMARK  132  A    between atoms: _314  and  _317
REMARK  133  A    between atoms: _317  and  _318
REMARK  134  A    between atoms: _324  and  _326
REMARK  135  A    between atoms: _326  and  _327
REMARK  136  A    between atoms: _326  and  _329
REMARK  137  A    between atoms: _329  and  _330
REMARK  138  A    between atoms: _330  and  _331
REMARK  139  A    between atoms: _331  and  _332
REMARK  140  A    between atoms: _341  and  _343
REMARK  141  A    between atoms: _343  and  _344
REMARK  142  A    between atoms: _343  and  _346
REMARK  143  A    between atoms: _349  and  _351
REMARK  144  A    between atoms: _351  and  _352
REMARK  145  A    between atoms: _351  and  _354
REMARK  146  A    between atoms: _354  and  _355
REMARK  147  A    between atoms: _358  and  _360
REMARK  148  A    between atoms: _360  and  _361
REMARK  149  A    between atoms: _360  and  _363
REMARK  150  A    between atoms: _363  and  _364
REMARK  151  A    between atoms: _367  and  _369
REMARK  152  A    between atoms: _369  and  _370
REMARK  153  A    between atoms: _369  and  _372
REMARK  154  A    between atoms: _372  and  _373
REMARK  155  A    between atoms: _373  and  _374
REMARK  156  A    between atoms: _374  and  _375
REMARK  157  A    between atoms: _384  and  _386
REMARK  158  A    between atoms: _386  and  _387
REMARK  159  A    between atoms: _386  and  _389
REMARK  160  A    between atoms: _389  and  _390
REMARK  161  A    between atoms: _393  and  _395
REMARK  162  A    between atoms: _395  and  _396
REMARK  163  A    between atoms: _395  and  _398
REMARK  164  A    between atoms: _398  and  _399
REMARK  165  A    between atoms: _402  and  _404
REMARK  166  A    between atoms: _404  and  _405
REMARK  167  A    between atoms: _404  and  _407
REMARK  168  A    between atoms: _407  and  _408
REMARK  169  A    between atoms: _411  and  _413
REMARK  170  A    between atoms: _413  and  _414
REMARK  171  A    between atoms: _413  and  _416
REMARK  172  A    between atoms: _416  and  _417
REMARK  173  A    between atoms: _422  and  _423
REMARK  174  A    between atoms: _425  and  _427
REMARK  175  A    between atoms: _427  and  _428
REMARK  176  A    between atoms: _427  and  _430
REMARK  177  A    between atoms: _430  and  _431
REMARK  178  A    between atoms: _436  and  _437
REMARK  179  A    between atoms: _439  and  _441
REMARK  180  A    between atoms: _441  and  _442
REMARK  181  A    between atoms: _441  and  _444
REMARK  182  A    between atoms: _444  and  _445
REMARK  183  A    between atoms: _448  and  _450
REMARK  184  A    between atoms: _450  and  _451
REMARK  185  A    between atoms: _450  and  _453
REMARK  186  A    between atoms: _456  and  _458
REMARK  187  A    between atoms: _458  and  _459
REMARK  188  A    between atoms: _458  and  _461
REMARK  189  A    between atoms: _461  and  _462
REMARK  190  A    between atoms: _465  and  _467
REMARK  191  A    between atoms: _467  and  _468
REMARK  192  A    between atoms: _467  and  _470
REMARK  193  A    between atoms: _470  and  _471
REMARK  194  A    between atoms: _473  and  _475
REMARK  195  A    between atoms: _475  and  _476
REMARK  196  A    between atoms: _478  and  _480
REMARK  197  A    between atoms: _480  and  _481
REMARK  198  A    between atoms: _480  and  _483
REMARK  199  A    between atoms: _483  and  _484
REMARK  200  A    between atoms: _489  and  _490
REMARK  201  A    between atoms: _492  and  _494
REMARK  202  A    between atoms: _494  and  _495
REMARK  203  A    between atoms: _494  and  _497
REMARK  204  A    between atoms: _497  and  _498
REMARK  205  A    between atoms: _498  and  _499
REMARK  206  A    between atoms: _504  and  _506
REMARK  207  A    between atoms: _506  and  _507
REMARK  208  A    between atoms: _506  and  _509
REMARK  209  A    between atoms: _509  and  _510
REMARK  210  A    between atoms: _510  and  _511
REMARK  211  A    between atoms: _516  and  _518
REMARK  212  A    between atoms: _518  and  _519
REMARK  213  A    between atoms: _518  and  _521
REMARK  214  A    between atoms: _521  and  _522
REMARK  215  A    between atoms: _527  and  _528
REMARK  216  A    between atoms: _530  and  _532
REMARK  217  A    between atoms: _532  and  _533
REMARK  218  A    between atoms: _532  and  _535
REMARK  219  A    between atoms: _535  and  _536
REMARK  220  A    between atoms: _541  and  _542
REMARK  221  A    between atoms: _544  and  _546
REMARK  222  A    between atoms: _546  and  _547
REMARK  223  A    between atoms: _546  and  _549
REMARK  224  A    between atoms: _549  and  _550
REMARK  225  A    between atoms: _555  and  _556
REMARK  226  A    between atoms: _558  and  _560
REMARK  227  A    between atoms: _560  and  _561
REMARK  228  A    between atoms: _560  and  _563
REMARK  229  A    between atoms: _563  and  _564
REMARK  230  A    between atoms: _567  and  _569
REMARK  231  A    between atoms: _569  and  _570
REMARK  232  A    between atoms: _569  and  _572
REMARK  233  A    between atoms: _572  and  _573
REMARK  234  A    between atoms: _583  and  _585
REMARK  235  A    between atoms: _585  and  _586
REMARK  236  A    between atoms: _589  and  _591
REMARK  237  A    between atoms: _591  and  _592
REMARK  238  A    between atoms: _595  and  _597
REMARK  239  A    between atoms: _597  and  _598
REMARK  240  A    between atoms: _597  and  _600
REMARK  241  A    between atoms: _600  and  _601
REMARK  242  A    between atoms: _604  and  _606
REMARK  243  A    between atoms: _606  and  _607
REMARK  244  A    between atoms: _606  and  _609
REMARK  245  A    between atoms: _609  and  _610
REMARK  246  A    between atoms: _613  and  _615
REMARK  247  A    between atoms: _615  and  _616
REMARK  248  A    between atoms: _615  and  _618
REMARK  249  A    between atoms: _618  and  _619
REMARK  250  A    between atoms: _622  and  _624
REMARK  251  A    between atoms: _624  and  _625
REMARK  252  A    between atoms: _624  and  _627
REMARK  253  A    between atoms: _627  and  _628
REMARK  254  A    between atoms: _628  and  _629
REMARK  255  A    between atoms: _629  and  _630
REMARK  256  A    between atoms: _630  and  _631
REMARK  257  A    between atoms: _635  and  _637
REMARK  258  A    between atoms: _637  and  _638
REMARK  259  A    between atoms: _637  and  _640
REMARK  260  A    between atoms: _640  and  _641
REMARK  261  A    between atoms: _646  and  _648
REMARK  262  A    between atoms: _648  and  _649
REMARK  263  A    between atoms: _648  and  _651
REMARK  264  A    between atoms: _651  and  _652
REMARK  265  A    between atoms: _652  and  _653
REMARK  266  A    between atoms: _653  and  _654
REMARK  267  A    between atoms: _654  and  _655
REMARK  268  A    between atoms: _659  and  _661
REMARK  269  A    between atoms: _661  and  _662
REMARK  270  A    between atoms: _661  and  _664
REMARK  271  A    between atoms: _664  and  _665
REMARK  272  A    between atoms: _675  and  _677
REMARK  273  A    between atoms: _677  and  _678
REMARK  274  A    between atoms: _681  and  _683
REMARK  275  A    between atoms: _683  and  _684
REMARK  276  A    between atoms: _686  and  _688
REMARK  277  A    between atoms: _688  and  _689
REMARK  278  A    between atoms: _688  and  _691
REMARK  279  A    between atoms: _691  and  _692
REMARK  280  A    between atoms: _692  and  _693
REMARK  281  A    between atoms: _696  and  _698
REMARK  282  A    between atoms: _698  and  _699
REMARK  283  A    between atoms: _702  and  _704
REMARK  284  A    between atoms: _704  and  _705
REMARK  285  A    between atoms: _704  and  _707
REMARK  286  A    between atoms: _707  and  _708
REMARK  287  A    between atoms: _708  and  _709
REMARK  288  A    between atoms: _712  and  _714
REMARK  289  A    between atoms: _714  and  _715
REMARK  290  A    between atoms: _714  and  _717
REMARK  291  A    between atoms: _717  and  _718
REMARK  292  A    between atoms: _718  and  _719
REMARK  293  A    between atoms: _719  and  _720
REMARK  294  A    between atoms: _729  and  _731
REMARK  295  A    between atoms: _731  and  _732
REMARK  296  A    between atoms: _731  and  _734
REMARK  297  A    between atoms: _734  and  _735
REMARK  298  A    between atoms: _738  and  _740
REMARK  299  A    between atoms: _740  and  _741
REMARK  300  A    between atoms: _740  and  _743
REMARK  301  A    between atoms: _743  and  _744
REMARK  302  A    between atoms: _744  and  _745
REMARK  303  A    between atoms: _745  and  _746
REMARK  304  A    between atoms: _755  and  _757
REMARK  305  A    between atoms: _757  and  _758
REMARK  306  A    between atoms: _761  and  _763
REMARK  307  A    between atoms: _763  and  _764
REMARK  308  A    between atoms: _763  and  _766
REMARK  309  A    between atoms: _766  and  _767
REMARK  310  A    between atoms: _772  and  _773
REMARK  311  A    between atoms: _775  and  _777
REMARK  312  A    between atoms: _777  and  _778
REMARK  313  A    between atoms: _777  and  _780
REMARK  314  A    between atoms: _780  and  _781
REMARK  315  A    between atoms: _784  and  _786
REMARK  316  A    between atoms: _786  and  _787
REMARK  317  A    between atoms: _786  and  _789
REMARK  318  A    between atoms: _789  and  _790
REMARK  319  A    between atoms: _793  and  _795
REMARK  320  A    between atoms: _795  and  _796
REMARK  321  A    between atoms: _795  and  _798
REMARK  322  A    between atoms: _800  and  _802
REMARK  323  A    between atoms: _802  and  _803
REMARK  324  A    between atoms: _802  and  _805
REMARK  325  A    between atoms: _808  and  _810
REMARK  326  A    between atoms: _810  and  _811
REMARK  327  A    between atoms: _810  and  _813
REMARK  328  A    between atoms: _813  and  _814
REMARK  329  A    between atoms: _814  and  _815
REMARK  330  A    between atoms: _818  and  _820
REMARK  331  A    between atoms: _820  and  _821
REMARK  332  A    between atoms: _820  and  _823
REMARK  333  A    between atoms: _823  and  _824
REMARK  334  A    between atoms: _834  and  _836
REMARK  335  A    between atoms: _836  and  _837
REMARK  336  A    between atoms: _836  and  _839
REMARK  337  A    between atoms: _839  and  _840
REMARK  338  A    between atoms: _843  and  _845
REMARK  339  A    between atoms: _845  and  _846
REMARK  340  A    between atoms: _845  and  _848
REMARK  341  A    between atoms: _848  and  _849
REMARK  342  A    between atoms: _849  and  _850
REMARK  343  A    between atoms: _850  and  _851
REMARK  344  A    between atoms: _860  and  _862
REMARK  345  A    between atoms: _862  and  _863
REMARK  346  A    between atoms: _862  and  _865
REMARK  347  A    between atoms: _865  and  _866
REMARK  348  A    between atoms: _871  and  _872
REMARK  349  A    between atoms: _874  and  _876
REMARK  350  A    between atoms: _876  and  _877
REMARK  351  A    between atoms: _876  and  _879
REMARK  352  A    between atoms: _879  and  _880
REMARK  353  A    between atoms: _880  and  _881
REMARK  354  A    between atoms: _886  and  _888
REMARK  355  A    between atoms: _888  and  _889
REMARK  356  A    between atoms: _888  and  _891
REMARK  357  A    between atoms: _891  and  _892
REMARK  358  A    between atoms: _895  and  _897
REMARK  359  A    between atoms: _897  and  _898
REMARK  360  A    between atoms: _897  and  _900
REMARK  361  A    between atoms: _900  and  _901
REMARK  362  A    between atoms: _903  and  _905
REMARK  363  A    between atoms: _905  and  _906
REMARK  364  A    between atoms: _905  and  _908
REMARK  365  A    between atoms: _908  and  _909
REMARK  366  A    between atoms: _911  and  _913
REMARK  367  A    between atoms: _913  and  _914
REMARK  368  A    between atoms: _913  and  _916
REMARK  369  A    between atoms: _916  and  _917
REMARK  370  A    between atoms: _923  and  _925
REMARK  371  A    between atoms: _925  and  _926
REMARK  372  A    between atoms: _925  and  _928
REMARK  373  A    between atoms: _928  and  _929
REMARK  374  A    between atoms: _929  and  _930
REMARK  375  A    between atoms: _930  and  _931
REMARK  376  A    between atoms: _940  and  _942
REMARK  377  A    between atoms: _942  and  _943
REMARK  378  A    between atoms: _942  and  _945
REMARK  379  A    between atoms: _945  and  _946
REMARK  380  A    between atoms: _946  and  _947
REMARK  381  A    between atoms: _947  and  _948
REMARK  382  A    between atoms: _957  and  _959
REMARK  383  A    between atoms: _959  and  _960
REMARK  384  A    between atoms: _962  and  _964
REMARK  385  A    between atoms: _964  and  _965
REMARK  386  A    between atoms: _964  and  _967
REMARK  387  A    between atoms: _967  and  _968
REMARK  388  A    between atoms: _974  and  _975
REMARK  389  A    between atoms: _980  and  _982
REMARK  390  A    between atoms: _982  and  _983
REMARK  391  A    between atoms: _982  and  _985
REMARK  392  A    between atoms: _985  and  _986
REMARK  393  A    between atoms: _996  and  _998
REMARK  394  A    between atoms: _998  and  _999
REMARK  395  A    between atoms: _998  and  _1001
REMARK  396  A    between atoms: _1001  and  _1002
REMARK  397  A    between atoms: _1002  and  _1003
REMARK  398  A    between atoms: _1003  and  _1004
REMARK  399  A    between atoms: _1013  and  _1015
REMARK  400  A    between atoms: _1015  and  _1016
REMARK  401  A    between atoms: _1015  and  _1018
REMARK  402  A    between atoms: _1018  and  _1019
REMARK  403  A    between atoms: _1021  and  _1023
REMARK  404  A    between atoms: _1023  and  _1024
REMARK  405  A    between atoms: _1027  and  _1029
REMARK  406  A    between atoms: _1029  and  _1030
REMARK  407  A    between atoms: _1029  and  _1032
REMARK  408  A    between atoms: _1032  and  _1033
REMARK  409  A    between atoms: _1036  and  _1038
REMARK  410  A    between atoms: _1038  and  _1039
REMARK  411  A    between atoms: _1038  and  _1041
REMARK  412  A    between atoms: _1041  and  _1042
REMARK  413  A    between atoms: _1042  and  _1043
REMARK  414  A    between atoms: _1043  and  _1044
REMARK  415  A    between atoms: _1053  and  _1055
REMARK  416  A    between atoms: _1055  and  _1056
REMARK  417  A    between atoms: _1055  and  _1058
REMARK  418  A    between atoms: _1061  and  _1063
REMARK  419  A    between atoms: _1063  and  _1064
REMARK  420  A    between atoms: _1066  and  _1068
REMARK  421  A    between atoms: _1068  and  _1069
REMARK  422  A    between atoms: _1068  and  _1071
REMARK  423  A    between atoms: _1071  and  _1072
REMARK                            x       y       z     vdW  Elec       q    Type
REMARK                         _______ _______ _______ _____ _____    ______ ____
ROOT
ATOM      1  CA  TYR A   1       3.786  33.832  42.408  0.00  0.00    +0.149 C 
ENDROOT
BRANCH   1   2
ATOM      2  C   TYR A   1       3.697  34.737  43.624  0.00  0.00    +0.239 C 
ATOM      3  O   TYR A   1       2.664  34.793  44.294  0.00  0.00    -0.274 OA
ATOM      4  N   ILE A   2       4.731  35.493  43.955  0.00  0.00    -0.298 N 
ATOM      5  H   ILE A   2       5.596  35.476  43.378  0.00  0.00    +0.150 HD
BRANCH   4   6
ATOM      6  CA  ILE A   2       4.654  36.351  45.132  0.00  0.00    +0.137 C 
BRANCH   6   7
ATOM      7  CB  ILE A   2       4.916  35.586  46.439  0.00  0.00    +0.026 C 
ATOM      8  CG2 ILE A   2       6.365  35.102  46.517  0.00  0.00    +0.002 C 
BRANCH   7   9
ATOM      9  CG1 ILE A   2       4.648  36.548  47.624  0.00  0.00    +0.002 C 
ATOM     10  CD1 ILE A   2       4.401  35.881  48.932  0.00  0.00    +0.000 C 
ENDBRANCH   7   9
ENDBRANCH   6   7
BRANCH   6  11
ATOM     11  C   ILE A   2       5.622  37.511  44.951  0.00  0.00    +0.227 C 
ATOM     12  O   ILE A   2       6.565  37.400  44.160  0.00  0.00    -0.286 OA
ENDBRANCH   6  11
ENDBRANCH   4   6
ENDBRANCH   1   2
BRANCH   1  13
ATOM     13  N   TYR A   1       4.139  34.636  41.243  0.00  0.00    -0.238 NA
ATOM     14  H   TYR A   1       4.989  35.234  41.286  0.00  0.00    +0.142 HD
ENDBRANCH   1  13
BRANCH   1  15
ATOM     15  CB  TYR A   1       4.814  32.718  42.598  0.00  0.00    +0.053 C 
BRANCH  15  16
ATOM     16  CG  TYR A   1       4.579  31.808  43.771  0.00  0.00    -0.020 A 
ATOM     17  CD2 TYR A   1       5.168  32.082  45.008  0.00  0.00    -0.001 A 
ATOM     18  CE2 TYR A   1       4.953  31.255  46.097  0.00  0.00    +0.036 A 
ATOM     19  CZ  TYR A   1       4.132  30.160  45.963  0.00  0.00    +0.134 A 
ATOM     20  CE1 TYR A   1       3.530  29.873  44.760  0.00  0.00    +0.036 A 
ATOM     21  CD1 TYR A   1       3.758  30.692  43.679  0.00  0.00    -0.001 A 
BRANCH  19  22
ATOM     22  OH  TYR A   1       3.901  29.345  47.072  0.00  0.00    -0.506 OA
ATOM     23  HH  TYR A   1       3.484  29.881  47.793  0.00  0.00    +0.292 HD
ENDBRANCH  19  22
ENDBRANCH  15  16
ENDBRANCH   1  15
TORSDOF 9
REMARK  Name = ../refined-set-2016/1fo0/1fo0_pocket.pdb
REMARK  423 active torsions:
REMARK  status: ('A' for Active; 'I' for Inactive)
REMARK    1  A    between atoms: _1  and  _3
REMARK    2  A    between atoms: _3  and  _4
REMARK    3  A    between atoms: _3  and  _6
REMARK    4  A    between atoms: _6  and  _7
REMARK    5  A    between atoms: _10  and  _12
REMARK    6  A    between atoms: _12  and  _13
REMARK    7  A    between atoms: _12  and  _15
REMARK    8  A    between atoms: _15  and  _16
REMARK    9  A    between atoms: _16  and  _17
REMARK   10  A    between atoms: _17  and  _18
REMARK   11  A    between atoms: _27  and  _29
REMARK   12  A    between atoms: _29  and  _30
REMARK   13  A    between atoms: _29  and  _32
REMARK   14  A    between atoms: _32  and  _33
REMARK   15  A    between atoms: _38  and  _39
REMARK   16  A    between atoms: _41  and  _43
REMARK   17  A    between atoms: _43  and  _44
REMARK   18  A    between atoms: _43  and  _46
REMARK   19  A    between atoms: _46  and  _47
REMARK   20  A    between atoms: _53  and  _55
REMARK   21  A    between atoms: _55  and  _56
REMARK   22  A    between atoms: _55  and  _58
REMARK   23  A    between atoms: _61  and  _63
REMARK   24  A    between atoms: _63  and  _64
REMARK   25  A    between atoms: _63  and  _66
REMARK   26  A    between atoms: _66  and  _67
REMARK   27  A    between atoms: _70  and  _72
REMARK   28  A    between atoms: _72  and  _73
REMARK   29  A    between atoms: _72  and  _75
REMARK   30  A    between atoms: _75  and  _76
REMARK   31  A    between atoms: _81  and  _82
REMARK   32  A    between atoms: _84  and  _86
REMARK   33  A    between atoms: _86  and  _87
REMARK   34  A    between atoms: _86  and  _89
REMARK   35  A    between atoms: _89  and  _90
REMARK   36  A    between atoms: _90  and  _91
REMARK   37  A    between atoms: _93  and  _95
REMARK   38  A    between atoms: _95  and  _96
REMARK   39  A    between atoms: _95  and  _98
REMARK   40  A    between atoms: _98  and  _99
REMARK   41  A    between atoms: _99  and  _100
REMARK   42  A    between atoms: _103  and  _105
REMARK   43  A    between atoms: _105  and  _106
REMARK   44  A    between atoms: _105  and  _108
REMARK   45  A    between atoms: _111  and  _113
REMARK   46  A    between atoms: _113  and  _114
REMARK   47  A    between atoms: _116  and  _118
REMARK   48  A    between atoms: _118  and  _119
REMARK   49  A    between atoms: _118  and  _121
REMARK   50  A    between atoms: _121  and  _122
REMARK   51  A    between atoms: _128  and  _130
REMARK   52  A    between atoms: _130  and  _131
REMARK   53  A    between atoms: _130  and  _133
REMARK   54  A    between atoms: _136  and  _138
REMARK   55  A    between atoms: _138  and  _139
REMARK   56  A    between atoms: _138  and  _141
REMARK   57  A    between atoms: _141  and  _142
REMARK   58  A    between atoms: _148  and  _150
REMARK   59  A    between atoms: _150  and  _151
REMARK   60  A    between atoms: _150  and  _153
REMARK   61  A    between atoms: _153  and  _154
REMARK   62  A    between atoms: _159  and  _160
REMARK   63  A    between atoms: _162  and  _164
REMARK   64  A    between atoms: _164  and  _165
REMARK   65  A    between atoms: _164  and  _167
REMARK   66  A    between atoms: _167  and  _168
REMARK   67  A    between atoms: _168  and  _169
REMARK   68  A    between atoms: _171  and  _173
REMARK   69  A    between atoms: _173  and  _174
REMARK   70  A    between atoms: _173  and  _176
REMARK   71  A    between atoms: _176  and  _177
REMARK   72  A    between atoms: _177  and  _178
REMARK   73  A    between atoms: _181  and  _183
REMARK   74  A    between atoms: _183  and  _184
REMARK   75  A    between atoms: _183  and  _186
REMARK   76  A    between atoms: _186  and  _187
REMARK   77  A    between atoms: _192  and  _193
REMARK   78  A    between atoms: _195  and  _197
REMARK   79  A    between atoms: _197  and  _198
REMARK   80  A    between atoms: _197  and  _200
REMARK   81  A    between atoms: _200  and  _201
REMARK   82  A    between atoms: _201  and  _202
REMARK   83  A    between atoms: _202  and  _203
REMARK   84  A    between atoms: _212  and  _214
REMARK   85  A    between atoms: _214  and  _215
REMARK   86  A    between atoms: _214  and  _217
REMARK   87  A    between atoms: _217  and  _218
REMARK   88  A    between atoms: _218  and  _219
REMARK   89  A    between atoms: _222  and  _224
REMARK   90  A    between atoms: _224  and  _225
REMARK   91  A    between atoms: _224  and  _227
REMARK   92  A    between atoms: _227  and  _228
REMARK   93  A    between atoms: _228  and  _229
REMARK   94  A    between atoms: _234  and  _236
REMARK   95  A    between atoms: _236  and  _237
REMARK   96  A    between atoms: _236  and  _239
REMARK   97  A    between atoms: _239  and  _240
REMARK   98  A    between atoms: _240  and  _241
REMARK   99  A    between atoms: _241  and  _242
REMARK  100  A    between atoms: _242  and  _243
REMARK  101  A    between atoms: _247  and  _249
REMARK  102  A    between atoms: _249  and  _250
REMARK  103  A    between atoms: _253  and  _255
REMARK  104  A    between atoms: _255  and  _256
REMARK  105  A    between atoms: _255  and  _258
REMARK  106  A    between atoms: _258  and  _259
REMARK  107  A    between atoms: _259  and  _260
REMARK  108  A    between atoms: _260  and  _261
REMARK  109  A    between atoms: _261  and  _262
REMARK  110  A    between atoms: _266  and  _268
REMARK  111  A    between atoms: _268  and  _269
REMARK  112  A    between atoms: _271  and  _273
REMARK  113  A    between atoms: _273  and  _274
REMARK  114  A    between atoms: _273  and  _276
REMARK  115  A    between atoms: _276  and  _277
REMARK  116  A    between atoms: _282  and  _284
REMARK  117  A    between atoms: _284  and  _285
REMARK  118  A    between atoms: _284  and  _287
REMARK  119  A    between atoms: _287  and  _288
REMARK  120  A    between atoms: _288  and  _289
REMARK  121  A    between atoms: _292  and  _294
REMARK  122  A    between atoms: _294  and  _295
REMARK  123  A    between atoms: _294  and  _297
REMARK  124  A    between atoms: _297  and  _298
REMARK  125  A    between atoms: _298  and  _299
REMARK  126  A    between atoms: _304  and  _306
REMARK  127  A    between atoms: _306  and  _307
REMARK  128  A    between atoms: _306  and  _309
REMARK  129  A    between atoms: _309  and  _310
REMARK  130  A    between atoms: _312  and  _314
REMARK  131  A    between atoms: _314  and  _315
REMARK  132  A    between atoms: _314  and  _317
REMARK  133  A    between atoms: _317  and  _318
REMARK  134  A    between atoms: _324  and  _326
REMARK  135  A    between atoms: _326  and  _327
REMARK  136  A    between atoms: _326  and  _329
REMARK  137  A    between atoms: _329  and  _330
REMARK  138  A    between atoms: _330  and  _331
REMARK  139  A    between atoms: _331  and  _332
REMARK  140  A    between atoms: _341  and  _343
REMARK  141  A    between atoms: _343  and  _344
REMARK  142  A    between atoms: _343  and  _346
REMARK  143  A    between atoms: _349  and  _351
REMARK  144  A    between atoms: _351  and  _352
REMARK  145  A    between atoms: _351  and  _354
REMARK  146  A    between atoms: _354  and  _355
REMARK  147  A    between atoms: _358  and  _360
REMARK  148  A    between atoms: _360  and  _361
REMARK  149  A    between atoms: _360  and  _363
REMARK  150  A    between atoms: _363  and  _364
REMARK  151  A    between atoms: _367  and  _369
REMARK  152  A    between atoms: _369  and  _370
REMARK  153  A    between atoms: _369  and  _372
REMARK  154  A    between atoms: _372  and  _373
REMARK  155  A    between atoms: _373  and  _374
REMARK  156  A    between atoms: _374  and  _375
REMARK  157  A    between atoms: _384  and  _386
REMARK  158  A    between atoms: _386  and  _387
REMARK  159  A    between atoms: _386  and  _389
REMARK  160  A    between atoms: _389  and  _390
REMARK  161  A    between atoms: _393  and  _395
REMARK  162  A    between atoms: _395  and  _396
REMARK  163  A    between atoms: _395  and  _398
REMARK  164  A    between atoms: _398  and  _399
REMARK  165  A    between atoms: _402  and  _404
REMARK  166  A    between atoms: _404  and  _405
REMARK  167  A    between atoms: _404  and  _407
REMARK  168  A    between atoms: _407  and  _408
REMARK  169  A    between atoms: _411  and  _413
REMARK  170  A    between atoms: _413  and  _414
REMARK  171  A    between atoms: _413  and  _416
REMARK  172  A    between atoms: _416  and  _417
REMARK  173  A    between atoms: _422  and  _423
REMARK  174  A    between atoms: _425  and  _427
REMARK  175  A    between atoms: _427  and  _428
REMARK  176  A    between atoms: _427  and  _430
REMARK  177  A    between atoms: _430  and  _431
REMARK  178  A    between atoms: _436  and  _437
REMARK  179  A    between atoms: _439  and  _441
REMARK  180  A    between atoms: _441  and  _442
REMARK  181  A    between atoms: _441  and  _444
REMARK  182  A    between atoms: _444  and  _445
REMARK  183  A    between atoms: _448  and  _450
REMARK  184  A    between atoms: _450  and  _451
REMARK  185  A    between atoms: _450  and  _453
REMARK  186  A    between atoms: _456  and  _458
REMARK  187  A    between atoms: _458  and  _459
REMARK  188  A    between atoms: _458  and  _461
REMARK  189  A    between atoms: _461  and  _462
REMARK  190  A    between atoms: _465  and  _467
REMARK  191  A    between atoms: _467  and  _468
REMARK  192  A    between atoms: _467  and  _470
REMARK  193  A    between atoms: _470  and  _471
REMARK  194  A    between atoms: _473  and  _475
REMARK  195  A    between atoms: _475  and  _476
REMARK  196  A    between atoms: _478  and  _480
REMARK  197  A    between atoms: _480  and  _481
REMARK  198  A    between atoms: _480  and  _483
REMARK  199  A    between atoms: _483  and  _484
REMARK  200  A    between atoms: _489  and  _490
REMARK  201  A    between atoms: _492  and  _494
REMARK  202  A    between atoms: _494  and  _495
REMARK  203  A    between atoms: _494  and  _497
REMARK  204  A    between atoms: _497  and  _498
REMARK  205  A    between atoms: _498  and  _499
REMARK  206  A    between atoms: _504  and  _506
REMARK  207  A    between atoms: _506  and  _507
REMARK  208  A    between atoms: _506  and  _509
REMARK  209  A    between atoms: _509  and  _510
REMARK  210  A    between atoms: _510  and  _511
REMARK  211  A    between atoms: _516  and  _518
REMARK  212  A    between atoms: _518  and  _519
REMARK  213  A    between atoms: _518  and  _521
REMARK  214  A    between atoms: _521  and  _522
REMARK  215  A    between atoms: _527  and  _528
REMARK  216  A    between atoms: _530  and  _532
REMARK  217  A    between atoms: _532  and  _533
REMARK  218  A    between atoms: _532  and  _535
REMARK  219  A    between atoms: _535  and  _536
REMARK  220  A    between atoms: _541  and  _542
REMARK  221  A    between atoms: _544  and  _546
REMARK  222  A    between atoms: _546  and  _547
REMARK  223  A    between atoms: _546  and  _549
REMARK  224  A    between atoms: _549  and  _550
REMARK  225  A    between atoms: _555  and  _556
REMARK  226  A    between atoms: _558  and  _560
REMARK  227  A    between atoms: _560  and  _561
REMARK  228  A    between atoms: _560  and  _563
REMARK  229  A    between atoms: _563  and  _564
REMARK  230  A    between atoms: _567  and  _569
REMARK  231  A    between atoms: _569  and  _570
REMARK  232  A    between atoms: _569  and  _572
REMARK  233  A    between atoms: _572  and  _573
REMARK  234  A    between atoms: _583  and  _585
REMARK  235  A    between atoms: _585  and  _586
REMARK  236  A    between atoms: _589  and  _591
REMARK  237  A    between atoms: _591  and  _592
REMARK  238  A    between atoms: _595  and  _597
REMARK  239  A    between atoms: _597  and  _598
REMARK  240  A    between atoms: _597  and  _600
REMARK  241  A    between atoms: _600  and  _601
REMARK  242  A    between atoms: _604  and  _606
REMARK  243  A    between atoms: _606  and  _607
REMARK  244  A    between atoms: _606  and  _609
REMARK  245  A    between atoms: _609  and  _610
REMARK  246  A    between atoms: _613  and  _615
REMARK  247  A    between atoms: _615  and  _616
REMARK  248  A    between atoms: _615  and  _618
REMARK  249  A    between atoms: _618  and  _619
REMARK  250  A    between atoms: _622  and  _624
REMARK  251  A    between atoms: _624  and  _625
REMARK  252  A    between atoms: _624  and  _627
REMARK  253  A    between atoms: _627  and  _628
REMARK  254  A    between atoms: _628  and  _629
REMARK  255  A    between atoms: _629  and  _630
REMARK  256  A    between atoms: _630  and  _631
REMARK  257  A    between atoms: _635  and  _637
REMARK  258  A    between atoms: _637  and  _638
REMARK  259  A    between atoms: _637  and  _640
REMARK  260  A    between atoms: _640  and  _641
REMARK  261  A    between atoms: _646  and  _648
REMARK  262  A    between atoms: _648  and  _649
REMARK  263  A    between atoms: _648  and  _651
REMARK  264  A    between atoms: _651  and  _652
REMARK  265  A    between atoms: _652  and  _653
REMARK  266  A    between atoms: _653  and  _654
REMARK  267  A    between atoms: _654  and  _655
REMARK  268  A    between atoms: _659  and  _661
REMARK  269  A    between atoms: _661  and  _662
REMARK  270  A    between atoms: _661  and  _664
REMARK  271  A    between atoms: _664  and  _665
REMARK  272  A    between atoms: _675  and  _677
REMARK  273  A    between atoms: _677  and  _678
REMARK  274  A    between atoms: _681  and  _683
REMARK  275  A    between atoms: _683  and  _684
REMARK  276  A    between atoms: _686  and  _688
REMARK  277  A    between atoms: _688  and  _689
REMARK  278  A    between atoms: _688  and  _691
REMARK  279  A    between atoms: _691  and  _692
REMARK  280  A    between atoms: _692  and  _693
REMARK  281  A    between atoms: _696  and  _698
REMARK  282  A    between atoms: _698  and  _699
REMARK  283  A    between atoms: _702  and  _704
REMARK  284  A    between atoms: _704  and  _705
REMARK  285  A    between atoms: _704  and  _707
REMARK  286  A    between atoms: _707  and  _708
REMARK  287  A    between atoms: _708  and  _709
REMARK  288  A    between atoms: _712  and  _714
REMARK  289  A    between atoms: _714  and  _715
REMARK  290  A    between atoms: _714  and  _717
REMARK  291  A    between atoms: _717  and  _718
REMARK  292  A    between atoms: _718  and  _719
REMARK  293  A    between atoms: _719  and  _720
REMARK  294  A    between atoms: _729  and  _731
REMARK  295  A    between atoms: _731  and  _732
REMARK  296  A    between atoms: _731  and  _734
REMARK  297  A    between atoms: _734  and  _735
REMARK  298  A    between atoms: _738  and  _740
REMARK  299  A    between atoms: _740  and  _741
REMARK  300  A    between atoms: _740  and  _743
REMARK  301  A    between atoms: _743  and  _744
REMARK  302  A    between atoms: _744  and  _745
REMARK  303  A    between atoms: _745  and  _746
REMARK  304  A    between atoms: _755  and  _757
REMARK  305  A    between atoms: _757  and  _758
REMARK  306  A    between atoms: _761  and  _763
REMARK  307  A    between atoms: _763  and  _764
REMARK  308  A    between atoms: _763  and  _766
REMARK  309  A    between atoms: _766  and  _767
REMARK  310  A    between atoms: _772  and  _773
REMARK  311  A    between atoms: _775  and  _777
REMARK  312  A    between atoms: _777  and  _778
REMARK  313  A    between atoms: _777  and  _780
REMARK  314  A    between atoms: _780  and  _781
REMARK  315  A    between atoms: _784  and  _786
REMARK  316  A    between atoms: _786  and  _787
REMARK  317  A    between atoms: _786  and  _789
REMARK  318  A    between atoms: _789  and  _790
REMARK  319  A    between atoms: _793  and  _795
REMARK  320  A    between atoms: _795  and  _796
REMARK  321  A    between atoms: _795  and  _798
REMARK  322  A    between atoms: _800  and  _802
REMARK  323  A    between atoms: _802  and  _803
REMARK  324  A    between atoms: _802  and  _805
REMARK  325  A    between atoms: _808  and  _810
REMARK  326  A    between atoms: _810  and  _811
REMARK  327  A    between atoms: _810  and  _813
REMARK  328  A    between atoms: _813  and  _814
REMARK  329  A    between atoms: _814  and  _815
REMARK  330  A    between atoms: _818  and  _820
REMARK  331  A    between atoms: _820  and  _821
REMARK  332  A    between atoms: _820  and  _823
REMARK  333  A    between atoms: _823  and  _824
REMARK  334  A    between atoms: _834  and  _836
REMARK  335  A    between atoms: _836  and  _837
REMARK  336  A    between atoms: _836  and  _839
REMARK  337  A    between atoms: _839  and  _840
REMARK  338  A    between atoms: _843  and  _845
REMARK  339  A    between atoms: _845  and  _846
REMARK  340  A    between atoms: _845  and  _848
REMARK  341  A    between atoms: _848  and  _849
REMARK  342  A    between atoms: _849  and  _850
REMARK  343  A    between atoms: _850  and  _851
REMARK  344  A    between atoms: _860  and  _862
REMARK  345  A    between atoms: _862  and  _863
REMARK  346  A    between atoms: _862  and  _865
REMARK  347  A    between atoms: _865  and  _866
REMARK  348  A    between atoms: _871  and  _872
REMARK  349  A    between atoms: _874  and  _876
REMARK  350  A    between atoms: _876  and  _877
REMARK  351  A    between atoms: _876  and  _879
REMARK  352  A    between atoms: _879  and  _880
REMARK  353  A    between atoms: _880  and  _881
REMARK  354  A    between atoms: _886  and  _888
REMARK  355  A    between atoms: _888  and  _889
REMARK  356  A    between atoms: _888  and  _891
REMARK  357  A    between atoms: _891  and  _892
REMARK  358  A    between atoms: _895  and  _897
REMARK  359  A    between atoms: _897  and  _898
REMARK  360  A    between atoms: _897  and  _900
REMARK  361  A    between atoms: _900  and  _901
REMARK  362  A    between atoms: _903  and  _905
REMARK  363  A    between atoms: _905  and  _906
REMARK  364  A    between atoms: _905  and  _908
REMARK  365  A    between atoms: _908  and  _909
REMARK  366  A    between atoms: _911  and  _913
REMARK  367  A    between atoms: _913  and  _914
REMARK  368  A    between atoms: _913  and  _916
REMARK  369  A    between atoms: _916  and  _917
REMARK  370  A    between atoms: _923  and  _925
REMARK  371  A    between atoms: _925  and  _926
REMARK  372  A    between atoms: _925  and  _928
REMARK  373  A    between atoms: _928  and  _929
REMARK  374  A    between atoms: _929  and  _930
REMARK  375  A    between atoms: _930  and  _931
REMARK  376  A    between atoms: _940  and  _942
REMARK  377  A    between atoms: _942  and  _943
REMARK  378  A    between atoms: _942  and  _945
REMARK  379  A    between atoms: _945  and  _946
REMARK  380  A    between atoms: _946  and  _947
REMARK  381  A    between atoms: _947  and  _948
REMARK  382  A    between atoms: _957  and  _959
REMARK  383  A    between atoms: _959  and  _960
REMARK  384  A    between atoms: _962  and  _964
REMARK  385  A    between atoms: _964  and  _965
REMARK  386  A    between atoms: _964  and  _967
REMARK  387  A    between atoms: _967  and  _968
REMARK  388  A    between atoms: _974  and  _975
REMARK  389  A    between atoms: _980  and  _982
REMARK  390  A    between atoms: _982  and  _983
REMARK  391  A    between atoms: _982  and  _985
REMARK  392  A    between atoms: _985  and  _986
REMARK  393  A    between atoms: _996  and  _998
REMARK  394  A    between atoms: _998  and  _999
REMARK  395  A    between atoms: _998  and  _1001
REMARK  396  A    between atoms: _1001  and  _1002
REMARK  397  A    between atoms: _1002  and  _1003
REMARK  398  A    between atoms: _1003  and  _1004
REMARK  399  A    between atoms: _1013  and  _1015
REMARK  400  A    between atoms: _1015  and  _1016
REMARK  401  A    between atoms: _1015  and  _1018
REMARK  402  A    between atoms: _1018  and  _1019
REMARK  403  A    between atoms: _1021  and  _1023
REMARK  404  A    between atoms: _1023  and  _1024
REMARK  405  A    between atoms: _1027  and  _1029
REMARK  406  A    between atoms: _1029  and  _1030
REMARK  407  A    between atoms: _1029  and  _1032
REMARK  408  A    between atoms: _1032  and  _1033
REMARK  409  A    between atoms: _1036  and  _1038
REMARK  410  A    between atoms: _1038  and  _1039
REMARK  411  A    between atoms: _1038  and  _1041
REMARK  412  A    between atoms: _1041  and  _1042
REMARK  413  A    between atoms: _1042  and  _1043
REMARK  414  A    between atoms: _1043  and  _1044
REMARK  415  A    between atoms: _1053  and  _1055
REMARK  416  A    between atoms: _1055  and  _1056
REMARK  417  A    between atoms: _1055  and  _1058
REMARK  418  A    between atoms: _1061  and  _1063
REMARK  419  A    between atoms: _1063  and  _1064
REMARK  420  A    between atoms: _1066  and  _1068
REMARK  421  A    between atoms: _1068  and  _1069
REMARK  422  A    between atoms: _1068  and  _1071
REMARK  423  A    between atoms: _1071  and  _1072
REMARK                            x       y       z     vdW  Elec       q    Type
REMARK                         _______ _______ _______ _____ _____    ______ ____
ROOT
ATOM      1  CG  TRP A   1       5.473  39.080  51.498  0.00  0.00    -0.002 A 
ATOM      2  CD1 TRP A   1       5.591  39.081  52.864  0.00  0.00    +0.068 A 
ATOM      3  NE1 TRP A   1       6.920  38.980  53.212  0.00  0.00    -0.352 N 
ATOM      4  HE1 TRP A   1       7.292  38.967  54.183  0.00  0.00    +0.166 HD
ATOM      5  CE2 TRP A   1       7.679  38.899  52.060  0.00  0.00    +0.056 A 
ATOM      6  CZ2 TRP A   1       9.043  38.767  51.889  0.00  0.00    +0.017 A 
ATOM      7  CH2 TRP A   1       9.533  38.727  50.613  0.00  0.00    +0.001 A 
ATOM      8  CZ3 TRP A   1       8.688  38.807  49.502  0.00  0.00    +0.000 A 
ATOM      9  CE3 TRP A   1       7.311  38.921  49.662  0.00  0.00    +0.001 A 
ATOM     10  CD2 TRP A   1       6.807  38.973  50.964  0.00  0.00    +0.013 A 
ENDROOT
BRANCH   1  11
ATOM     11  CB  TRP A   1       4.231  39.185  50.667  0.00  0.00    +0.053 C 
BRANCH  11  12
ATOM     12  CA  TRP A   1       3.929  40.638  50.252  0.00  0.00    +0.137 C 
BRANCH  12  13
ATOM     13  N   TRP A   1       3.779  41.376  51.512  0.00  0.00    -0.239 NA
ATOM     14  H   TRP A   1       3.175  41.014  52.278  0.00  0.00    +0.142 HD
ENDBRANCH  12  13
BRANCH  12  15
ATOM     15  C   TRP A   1       2.582  40.590  49.555  0.00  0.00    +0.224 C 
ATOM     16  O   TRP A   1       1.597  40.711  50.284  0.00  0.00    -0.287 OA
ENDBRANCH  12  15
ENDBRANCH  11  12
ENDBRANCH   1  11
TORSDOF 4
REMARK  Name = ../refined-set-2016/1fo0/1fo0_pocket.pdb
REMARK  423 active torsions:
REMARK  status: ('A' for Active; 'I' for Inactive)
REMARK    1  A    between atoms: _1  and  _3
REMARK    2  A    between atoms: _3  and  _4
REMARK    3  A    between atoms: _3  and  _6
REMARK    4  A    between atoms: _6  and  _7
REMARK    5  A    between atoms: _10  and  _12
REMARK    6  A    between atoms: _12  and  _13
REMARK    7  A    between atoms: _12  and  _15
REMARK    8  A    between atoms: _15  and  _16
REMARK    9  A    between atoms: _16  and  _17
REMARK   10  A    between atoms: _17  and  _18
REMARK   11  A    between atoms: _27  and  _29
REMARK   12  A    between atoms: _29  and  _30
REMARK   13  A    between atoms: _29  and  _32
REMARK   14  A    between atoms: _32  and  _33
REMARK   15  A    between atoms: _38  and  _39
REMARK   16  A    between atoms: _41  and  _43
REMARK   17  A    between atoms: _43  and  _44
REMARK   18  A    between atoms: _43  and  _46
REMARK   19  A    between atoms: _46  and  _47
REMARK   20  A    between atoms: _53  and  _55
REMARK   21  A    between atoms: _55  and  _56
REMARK   22  A    between atoms: _55  and  _58
REMARK   23  A    between atoms: _61  and  _63
REMARK   24  A    between atoms: _63  and  _64
REMARK   25  A    between atoms: _63  and  _66
REMARK   26  A    between atoms: _66  and  _67
REMARK   27  A    between atoms: _70  and  _72
REMARK   28  A    between atoms: _72  and  _73
REMARK   29  A    between atoms: _72  and  _75
REMARK   30  A    between atoms: _75  and  _76
REMARK   31  A    between atoms: _81  and  _82
REMARK   32  A    between atoms: _84  and  _86
REMARK   33  A    between atoms: _86  and  _87
REMARK   34  A    between atoms: _86  and  _89
REMARK   35  A    between atoms: _89  and  _90
REMARK   36  A    between atoms: _90  and  _91
REMARK   37  A    between atoms: _93  and  _95
REMARK   38  A    between atoms: _95  and  _96
REMARK   39  A    between atoms: _95  and  _98
REMARK   40  A    between atoms: _98  and  _99
REMARK   41  A    between atoms: _99  and  _100
REMARK   42  A    between atoms: _103  and  _105
REMARK   43  A    between atoms: _105  and  _106
REMARK   44  A    between atoms: _105  and  _108
REMARK   45  A    between atoms: _111  and  _113
REMARK   46  A    between atoms: _113  and  _114
REMARK   47  A    between atoms: _116  and  _118
REMARK   48  A    between atoms: _118  and  _119
REMARK   49  A    between atoms: _118  and  _121
REMARK   50  A    between atoms: _121  and  _122
REMARK   51  A    between atoms: _128  and  _130
REMARK   52  A    between atoms: _130  and  _131
REMARK   53  A    between atoms: _130  and  _133
REMARK   54  A    between atoms: _136  and  _138
REMARK   55  A    between atoms: _138  and  _139
REMARK   56  A    between atoms: _138  and  _141
REMARK   57  A    between atoms: _141  and  _142
REMARK   58  A    between atoms: _148  and  _150
REMARK   59  A    between atoms: _150  and  _151
REMARK   60  A    between atoms: _150  and  _153
REMARK   61  A    between atoms: _153  and  _154
REMARK   62  A    between atoms: _159  and  _160
REMARK   63  A    between atoms: _162  and  _164
REMARK   64  A    between atoms: _164  and  _165
REMARK   65  A    between atoms: _164  and  _167
REMARK   66  A    between atoms: _167  and  _168
REMARK   67  A    between atoms: _168  and  _169
REMARK   68  A    between atoms: _171  and  _173
REMARK   69  A    between atoms: _173  and  _174
REMARK   70  A    between atoms: _173  and  _176
REMARK   71  A    between atoms: _176  and  _177
REMARK   72  A    between atoms: _177  and  _178
REMARK   73  A    between atoms: _181  and  _183
REMARK   74  A    between atoms: _183  and  _184
REMARK   75  A    between atoms: _183  and  _186
REMARK   76  A    between atoms: _186  and  _187
REMARK   77  A    between atoms: _192  and  _193
REMARK   78  A    between atoms: _195  and  _197
REMARK   79  A    between atoms: _197  and  _198
REMARK   80  A    between atoms: _197  and  _200
REMARK   81  A    between atoms: _200  and  _201
REMARK   82  A    between atoms: _201  and  _202
REMARK   83  A    between atoms: _202  and  _203
REMARK   84  A    between atoms: _212  and  _214
REMARK   85  A    between atoms: _214  and  _215
REMARK   86  A    between atoms: _214  and  _217
REMARK   87  A    between atoms: _217  and  _218
REMARK   88  A    between atoms: _218  and  _219
REMARK   89  A    between atoms: _222  and  _224
REMARK   90  A    between atoms: _224  and  _225
REMARK   91  A    between atoms: _224  and  _227
REMARK   92  A    between atoms: _227  and  _228
REMARK   93  A    between atoms: _228  and  _229
REMARK   94  A    between atoms: _234  and  _236
REMARK   95  A    between atoms: _236  and  _237
REMARK   96  A    between atoms: _236  and  _239
REMARK   97  A    between atoms: _239  and  _240
REMARK   98  A    between atoms: _240  and  _241
REMARK   99  A    between atoms: _241  and  _242
REMARK  100  A    between atoms: _242  and  _243
REMARK  101  A    between atoms: _247  and  _249
REMARK  102  A    between atoms: _249  and  _250
REMARK  103  A    between atoms: _253  and  _255
REMARK  104  A    between atoms: _255  and  _256
REMARK  105  A    between atoms: _255  and  _258
REMARK  106  A    between atoms: _258  and  _259
REMARK  107  A    between atoms: _259  and  _260
REMARK  108  A    between atoms: _260  and  _261
REMARK  109  A    between atoms: _261  and  _262
REMARK  110  A    between atoms: _266  and  _268
REMARK  111  A    between atoms: _268  and  _269
REMARK  112  A    between atoms: _271  and  _273
REMARK  113  A    between atoms: _273  and  _274
REMARK  114  A    between atoms: _273  and  _276
REMARK  115  A    between atoms: _276  and  _277
REMARK  116  A    between atoms: _282  and  _284
REMARK  117  A    between atoms: _284  and  _285
REMARK  118  A    between atoms: _284  and  _287
REMARK  119  A    between atoms: _287  and  _288
REMARK  120  A    between atoms: _288  and  _289
REMARK  121  A    between atoms: _292  and  _294
REMARK  122  A    between atoms: _294  and  _295
REMARK  123  A    between atoms: _294  and  _297
REMARK  124  A    between atoms: _297  and  _298
REMARK  125  A    between atoms: _298  and  _299
REMARK  126  A    between atoms: _304  and  _306
REMARK  127  A    between atoms: _306  and  _307
REMARK  128  A    between atoms: _306  and  _309
REMARK  129  A    between atoms: _309  and  _310
REMARK  130  A    between atoms: _312  and  _314
REMARK  131  A    between atoms: _314  and  _315
REMARK  132  A    between atoms: _314  and  _317
REMARK  133  A    between atoms: _317  and  _318
REMARK  134  A    between atoms: _324  and  _326
REMARK  135  A    between atoms: _326  and  _327
REMARK  136  A    between atoms: _326  and  _329
REMARK  137  A    between atoms: _329  and  _330
REMARK  138  A    between atoms: _330  and  _331
REMARK  139  A    between atoms: _331  and  _332
REMARK  140  A    between atoms: _341  and  _343
REMARK  141  A    between atoms: _343  and  _344
REMARK  142  A    between atoms: _343  and  _346
REMARK  143  A    between atoms: _349  and  _351
REMARK  144  A    between atoms: _351  and  _352
REMARK  145  A    between atoms: _351  and  _354
REMARK  146  A    between atoms: _354  and  _355
REMARK  147  A    between atoms: _358  and  _360
REMARK  148  A    between atoms: _360  and  _361
REMARK  149  A    between atoms: _360  and  _363
REMARK  150  A    between atoms: _363  and  _364
REMARK  151  A    between atoms: _367  and  _369
REMARK  152  A    between atoms: _369  and  _370
REMARK  153  A    between atoms: _369  and  _372
REMARK  154  A    between atoms: _372  and  _373
REMARK  155  A    between atoms: _373  and  _374
REMARK  156  A    between atoms: _374  and  _375
REMARK  157  A    between atoms: _384  and  _386
REMARK  158  A    between atoms: _386  and  _387
REMARK  159  A    between atoms: _386  and  _389
REMARK  160  A    between atoms: _389  and  _390
REMARK  161  A    between atoms: _393  and  _395
REMARK  162  A    between atoms: _395  and  _396
REMARK  163  A    between atoms: _395  and  _398
REMARK  164  A    between atoms: _398  and  _399
REMARK  165  A    between atoms: _402  and  _404
REMARK  166  A    between atoms: _404  and  _405
REMARK  167  A    between atoms: _404  and  _407
REMARK  168  A    between atoms: _407  and  _408
REMARK  169  A    between atoms: _411  and  _413
REMARK  170  A    between atoms: _413  and  _414
REMARK  171  A    between atoms: _413  and  _416
REMARK  172  A    between atoms: _416  and  _417
REMARK  173  A    between atoms: _422  and  _423
REMARK  174  A    between atoms: _425  and  _427
REMARK  175  A    between atoms: _427  and  _428
REMARK  176  A    between atoms: _427  and  _430
REMARK  177  A    between atoms: _430  and  _431
REMARK  178  A    between atoms: _436  and  _437
REMARK  179  A    between atoms: _439  and  _441
REMARK  180  A    between atoms: _441  and  _442
REMARK  181  A    between atoms: _441  and  _444
REMARK  182  A    between atoms: _444  and  _445
REMARK  183  A    between atoms: _448  and  _450
REMARK  184  A    between atoms: _450  and  _451
REMARK  185  A    between atoms: _450  and  _453
REMARK  186  A    between atoms: _456  and  _458
REMARK  187  A    between atoms: _458  and  _459
REMARK  188  A    between atoms: _458  and  _461
REMARK  189  A    between atoms: _461  and  _462
REMARK  190  A    between atoms: _465  and  _467
REMARK  191  A    between atoms: _467  and  _468
REMARK  192  A    between atoms: _467  and  _470
REMARK  193  A    between atoms: _470  and  _471
REMARK  194  A    between atoms: _473  and  _475
REMARK  195  A    between atoms: _475  and  _476
REMARK  196  A    between atoms: _478  and  _480
REMARK  197  A    between atoms: _480  and  _481
REMARK  198  A    between atoms: _480  and  _483
REMARK  199  A    between atoms: _483  and  _484
REMARK  200  A    between atoms: _489  and  _490
REMARK  201  A    between atoms: _492  and  _494
REMARK  202  A    between atoms: _494  and  _495
REMARK  203  A    between atoms: _494  and  _497
REMARK  204  A    between atoms: _497  and  _498
REMARK  205  A    between atoms: _498  and  _499
REMARK  206  A    between atoms: _504  and  _506
REMARK  207  A    between atoms: _506  and  _507
REMARK  208  A    between atoms: _506  and  _509
REMARK  209  A    between atoms: _509  and  _510
REMARK  210  A    between atoms: _510  and  _511
REMARK  211  A    between atoms: _516  and  _518
REMARK  212  A    between atoms: _518  and  _519
REMARK  213  A    between atoms: _518  and  _521
REMARK  214  A    between atoms: _521  and  _522
REMARK  215  A    between atoms: _527  and  _528
REMARK  216  A    between atoms: _530  and  _532
REMARK  217  A    between atoms: _532  and  _533
REMARK  218  A    between atoms: _532  and  _535
REMARK  219  A    between atoms: _535  and  _536
REMARK  220  A    between atoms: _541  and  _542
REMARK  221  A    between atoms: _544  and  _546
REMARK  222  A    between atoms: _546  and  _547
REMARK  223  A    between atoms: _546  and  _549
REMARK  224  A    between atoms: _549  and  _550
REMARK  225  A    between atoms: _555  and  _556
REMARK  226  A    between atoms: _558  and  _560
REMARK  227  A    between atoms: _560  and  _561
REMARK  228  A    between atoms: _560  and  _563
REMARK  229  A    between atoms: _563  and  _564
REMARK  230  A    between atoms: _567  and  _569
REMARK  231  A    between atoms: _569  and  _570
REMARK  232  A    between atoms: _569  and  _572
REMARK  233  A    between atoms: _572  and  _573
REMARK  234  A    between atoms: _583  and  _585
REMARK  235  A    between atoms: _585  and  _586
REMARK  236  A    between atoms: _589  and  _591
REMARK  237  A    between atoms: _591  and  _592
REMARK  238  A    between atoms: _595  and  _597
REMARK  239  A    between atoms: _597  and  _598
REMARK  240  A    between atoms: _597  and  _600
REMARK  241  A    between atoms: _600  and  _601
REMARK  242  A    between atoms: _604  and  _606
REMARK  243  A    between atoms: _606  and  _607
REMARK  244  A    between atoms: _606  and  _609
REMARK  245  A    between atoms: _609  and  _610
REMARK  246  A    between atoms: _613  and  _615
REMARK  247  A    between atoms: _615  and  _616
REMARK  248  A    between atoms: _615  and  _618
REMARK  249  A    between atoms: _618  and  _619
REMARK  250  A    between atoms: _622  and  _624
REMARK  251  A    between atoms: _624  and  _625
REMARK  252  A    between atoms: _624  and  _627
REMARK  253  A    between atoms: _627  and  _628
REMARK  254  A    between atoms: _628  and  _629
REMARK  255  A    between atoms: _629  and  _630
REMARK  256  A    between atoms: _630  and  _631
REMARK  257  A    between atoms: _635  and  _637
REMARK  258  A    between atoms: _637  and  _638
REMARK  259  A    between atoms: _637  and  _640
REMARK  260  A    between atoms: _640  and  _641
REMARK  261  A    between atoms: _646  and  _648
REMARK  262  A    between atoms: _648  and  _649
REMARK  263  A    between atoms: _648  and  _651
REMARK  264  A    between atoms: _651  and  _652
REMARK  265  A    between atoms: _652  and  _653
REMARK  266  A    between atoms: _653  and  _654
REMARK  267  A    between atoms: _654  and  _655
REMARK  268  A    between atoms: _659  and  _661
REMARK  269  A    between atoms: _661  and  _662
REMARK  270  A    between atoms: _661  and  _664
REMARK  271  A    between atoms: _664  and  _665
REMARK  272  A    between atoms: _675  and  _677
REMARK  273  A    between atoms: _677  and  _678
REMARK  274  A    between atoms: _681  and  _683
REMARK  275  A    between atoms: _683  and  _684
REMARK  276  A    between atoms: _686  and  _688
REMARK  277  A    between atoms: _688  and  _689
REMARK  278  A    between atoms: _688  and  _691
REMARK  279  A    between atoms: _691  and  _692
REMARK  280  A    between atoms: _692  and  _693
REMARK  281  A    between atoms: _696  and  _698
REMARK  282  A    between atoms: _698  and  _699
REMARK  283  A    between atoms: _702  and  _704
REMARK  284  A    between atoms: _704  and  _705
REMARK  285  A    between atoms: _704  and  _707
REMARK  286  A    between atoms: _707  and  _708
REMARK  287  A    between atoms: _708  and  _709
REMARK  288  A    between atoms: _712  and  _714
REMARK  289  A    between atoms: _714  and  _715
REMARK  290  A    between atoms: _714  and  _717
REMARK  291  A    between atoms: _717  and  _718
REMARK  292  A    between atoms: _718  and  _719
REMARK  293  A    between atoms: _719  and  _720
REMARK  294  A    between atoms: _729  and  _731
REMARK  295  A    between atoms: _731  and  _732
REMARK  296  A    between atoms: _731  and  _734
REMARK  297  A    between atoms: _734  and  _735
REMARK  298  A    between atoms: _738  and  _740
REMARK  299  A    between atoms: _740  and  _741
REMARK  300  A    between atoms: _740  and  _743
REMARK  301  A    between atoms: _743  and  _744
REMARK  302  A    between atoms: _744  and  _745
REMARK  303  A    between atoms: _745  and  _746
REMARK  304  A    between atoms: _755  and  _757
REMARK  305  A    between atoms: _757  and  _758
REMARK  306  A    between atoms: _761  and  _763
REMARK  307  A    between atoms: _763  and  _764
REMARK  308  A    between atoms: _763  and  _766
REMARK  309  A    between atoms: _766  and  _767
REMARK  310  A    between atoms: _772  and  _773
REMARK  311  A    between atoms: _775  and  _777
REMARK  312  A    between atoms: _777  and  _778
REMARK  313  A    between atoms: _777  and  _780
REMARK  314  A    between atoms: _780  and  _781
REMARK  315  A    between atoms: _784  and  _786
REMARK  316  A    between atoms: _786  and  _787
REMARK  317  A    between atoms: _786  and  _789
REMARK  318  A    between atoms: _789  and  _790
REMARK  319  A    between atoms: _793  and  _795
REMARK  320  A    between atoms: _795  and  _796
REMARK  321  A    between atoms: _795  and  _798
REMARK  322  A    between atoms: _800  and  _802
REMARK  323  A    between atoms: _802  and  _803
REMARK  324  A    between atoms: _802  and  _805
REMARK  325  A    between atoms: _808  and  _810
REMARK  326  A    between atoms: _810  and  _811
REMARK  327  A    between atoms: _810  and  _813
REMARK  328  A    between atoms: _813  and  _814
REMARK  329  A    between atoms: _814  and  _815
REMARK  330  A    between atoms: _818  and  _820
REMARK  331  A    between atoms: _820  and  _821
REMARK  332  A    between atoms: _820  and  _823
REMARK  333  A    between atoms: _823  and  _824
REMARK  334  A    between atoms: _834  and  _836
REMARK  335  A    between atoms: _836  and  _837
REMARK  336  A    between atoms: _836  and  _839
REMARK  337  A    between atoms: _839  and  _840
REMARK  338  A    between atoms: _843  and  _845
REMARK  339  A    between atoms: _845  and  _846
REMARK  340  A    between atoms: _845  and  _848
REMARK  341  A    between atoms: _848  and  _849
REMARK  342  A    between atoms: _849  and  _850
REMARK  343  A    between atoms: _850  and  _851
REMARK  344  A    between atoms: _860  and  _862
REMARK  345  A    between atoms: _862  and  _863
REMARK  346  A    between atoms: _862  and  _865
REMARK  347  A    between atoms: _865  and  _866
REMARK  348  A    between atoms: _871  and  _872
REMARK  349  A    between atoms: _874  and  _876
REMARK  350  A    between atoms: _876  and  _877
REMARK  351  A    between atoms: _876  and  _879
REMARK  352  A    between atoms: _879  and  _880
REMARK  353  A    between atoms: _880  and  _881
REMARK  354  A    between atoms: _886  and  _888
REMARK  355  A    between atoms: _888  and  _889
REMARK  356  A    between atoms: _888  and  _891
REMARK  357  A    between atoms: _891  and  _892
REMARK  358  A    between atoms: _895  and  _897
REMARK  359  A    between atoms: _897  and  _898
REMARK  360  A    between atoms: _897  and  _900
REMARK  361  A    between atoms: _900  and  _901
REMARK  362  A    between atoms: _903  and  _905
REMARK  363  A    between atoms: _905  and  _906
REMARK  364  A    between atoms: _905  and  _908
REMARK  365  A    between atoms: _908  and  _909
REMARK  366  A    between atoms: _911  and  _913
REMARK  367  A    between atoms: _913  and  _914
REMARK  368  A    between atoms: _913  and  _916
REMARK  369  A    between atoms: _916  and  _917
REMARK  370  A    between atoms: _923  and  _925
REMARK  371  A    between atoms: _925  and  _926
REMARK  372  A    between atoms: _925  and  _928
REMARK  373  A    between atoms: _928  and  _929
REMARK  374  A    between atoms: _929  and  _930
REMARK  375  A    between atoms: _930  and  _931
REMARK  376  A    between atoms: _940  and  _942
REMARK  377  A    between atoms: _942  and  _943
REMARK  378  A    between atoms: _942  and  _945
REMARK  379  A    between atoms: _945  and  _946
REMARK  380  A    between atoms: _946  and  _947
REMARK  381  A    between atoms: _947  and  _948
REMARK  382  A    between atoms: _957  and  _959
REMARK  383  A    between atoms: _959  and  _960
REMARK  384  A    between atoms: _962  and  _964
REMARK  385  A    between atoms: _964  and  _965
REMARK  386  A    between atoms: _964  and  _967
REMARK  387  A    between atoms: _967  and  _968
REMARK  388  A    between atoms: _974  and  _975
REMARK  389  A    between atoms: _980  and  _982
REMARK  390  A    between atoms: _982  and  _983
REMARK  391  A    between atoms: _982  and  _985
REMARK  392  A    between atoms: _985  and  _986
REMARK  393  A    between atoms: _996  and  _998
REMARK  394  A    between atoms: _998  and  _999
REMARK  395  A    between atoms: _998  and  _1001
REMARK  396  A    between atoms: _1001  and  _1002
REMARK  397  A    between atoms: _1002  and  _1003
REMARK  398  A    between atoms: _1003  and  _1004
REMARK  399  A    between atoms: _1013  and  _1015
REMARK  400  A    between atoms: _1015  and  _1016
REMARK  401  A    between atoms: _1015  and  _1018
REMARK  402  A    between atoms: _1018  and  _1019
REMARK  403  A    between atoms: _1021  and  _1023
REMARK  404  A    between atoms: _1023  and  _1024
REMARK  405  A    between atoms: _1027  and  _1029
REMARK  406  A    between atoms: _1029  and  _1030
REMARK  407  A    between atoms: _1029  and  _1032
REMARK  408  A    between atoms: _1032  and  _1033
REMARK  409  A    between atoms: _1036  and  _1038
REMARK  410  A    between atoms: _1038  and  _1039
REMARK  411  A    between atoms: _1038  and  _1041
REMARK  412  A    between atoms: _1041  and  _1042
REMARK  413  A    between atoms: _1042  and  _1043
REMARK  414  A    between atoms: _1043  and  _1044
REMARK  415  A    between atoms: _1053  and  _1055
REMARK  416  A    between atoms: _1055  and  _1056
REMARK  417  A    between atoms: _1055  and  _1058
REMARK  418  A    between atoms: _1061  and  _1063
REMARK  419  A    between atoms: _1063  and  _1064
REMARK  420  A    between atoms: _1066  and  _1068
REMARK  421  A    between atoms: _1068  and  _1069
REMARK  422  A    between atoms: _1068  and  _1071
REMARK  423  A    between atoms: _1071  and  _1072
REMARK                            x       y       z     vdW  Elec       q    Type
REMARK                         _______ _______ _______ _____ _____    ______ ____
ROOT
ATOM      1  CA  LYS A   6       3.123  34.740  52.512  0.00  0.00    +0.149 C 
ENDROOT
BRANCH   1   4
ATOM      2  C   THR A   5       4.206  32.586  52.267  0.00  0.00    +0.243 C 
ATOM      3  O   THR A   5       5.008  32.906  53.157  0.00  0.00    -0.273 OA
ATOM      4  N   LYS A   6       3.234  33.408  51.875  0.00  0.00    -0.297 N 
ATOM      5  H   LYS A   6       2.564  33.119  51.134  0.00  0.00    +0.150 HD
BRANCH   2   6
ATOM      6  CA  THR A   5       4.224  31.267  51.535  0.00  0.00    +0.176 C 
BRANCH   6   9
ATOM      7  C   ILE A   4       2.173  30.381  52.575  0.00  0.00    +0.241 C 
ATOM      8  O   ILE A   4       2.615  30.666  53.690  0.00  0.00    -0.273 OA
ATOM      9  N   THR A   5       2.897  30.674  51.483  0.00  0.00    -0.295 N 
ATOM     10  H   THR A   5       2.487  30.466  50.550  0.00  0.00    +0.150 HD
BRANCH   7  11
ATOM     11  CA  ILE A   4       0.801  29.767  52.286  0.00  0.00    +0.149 C 
BRANCH  11  14
ATOM     12  C   LEU A   3      -0.136  31.872  51.585  0.00  0.00    +0.241 C 
ATOM     13  O   LEU A   3       0.205  32.319  52.688  0.00  0.00    -0.273 OA
ATOM     14  N   ILE A   4       0.101  30.597  51.277  0.00  0.00    -0.297 N 
ATOM     15  H   ILE A   4      -0.194  30.199  50.363  0.00  0.00    +0.150 HD
BRANCH  12  16
ATOM     16  CA  LEU A   3      -0.822  32.727  50.536  0.00  0.00    +0.149 C 
BRANCH  16  19
ATOM     17  C   ALA A   2       0.807  32.454  48.808  0.00  0.00    +0.241 C 
ATOM     18  O   ALA A   2       1.697  33.014  49.473  0.00  0.00    -0.273 OA
ATOM     19  N   LEU A   3      -0.437  32.249  49.200  0.00  0.00    -0.297 N 
ATOM     20  H   LEU A   3      -1.122  31.766  48.584  0.00  0.00    +0.150 HD
BRANCH  17  21
ATOM     21  CA  ALA A   2       1.259  31.928  47.471  0.00  0.00    +0.149 C 
ATOM     22  CB  ALA A   2       1.613  33.009  46.518  0.00  0.00    +0.031 C 
BRANCH  21  25
ATOM     23  C   ALA A   1       0.387  29.681  47.506  0.00  0.00    +0.238 C 
ATOM     24  O   ALA A   1       1.114  29.400  48.469  0.00  0.00    -0.274 OA
ATOM     25  N   ALA A   2       0.368  30.904  46.964  0.00  0.00    -0.297 N 
ATOM     26  H   ALA A   2      -0.283  31.119  46.182  0.00  0.00    +0.150 HD
BRANCH  23  27
ATOM     27  CA  ALA A   1      -0.547  28.630  46.930  0.00  0.00    +0.145 C 
ATOM     28  CB  ALA A   1       0.090  27.969  45.732  0.00  0.00    +0.028 C 
BRANCH  27  29
ATOM     29  N   ALA A   1      -1.838  29.207  46.583  0.00  0.00    -0.238 NA
ATOM     30  H   ALA A   1      -2.185  29.123  45.606  0.00  0.00    +0.142 HD
ENDBRANCH  27  29
ENDBRANCH  23  27
ENDBRANCH  21  25
ENDBRANCH  17  21
ENDBRANCH  16  19
BRANCH  16  31
ATOM     31  CB  LEU A   3      -2.336  32.606  50.669  0.00  0.00    +0.029 C 
BRANCH  31  32
ATOM     32  CG  LEU A   3      -3.169  33.487  49.726  0.00  0.00    +0.002 C 
ATOM     33  CD2 LEU A   3      -2.750  34.933  49.980  0.00  0.00    +0.000 C 
ATOM     34  CD1 LEU A   3      -4.659  33.298  49.949  0.00  0.00    +0.000 C 
ENDBRANCH  31  32
ENDBRANCH  16  31
ENDBRANCH  12  16
ENDBRANCH  11  14
BRANCH  11  35
ATOM     35  CB  ILE A   4       0.988  28.348  51.689  0.00  0.00    +0.027 C 
ATOM     36  CG2 ILE A   4       1.641  27.479  52.747  0.00  0.00    +0.002 C 
BRANCH  35  37
ATOM     37  CG1 ILE A   4      -0.323  27.778  51.171  0.00  0.00    +0.002 C 
ATOM     38  CD1 ILE A   4      -0.200  26.510  50.339  0.00  0.00    +0.000 C 
ENDBRANCH  35  37
ENDBRANCH  11  35
ENDBRANCH   7  11
ENDBRANCH   6   9
BRANCH   6  39
ATOM     39  CB  THR A   5       4.748  31.519  50.114  0.00  0.00    +0.137 C 
ATOM     40  CG2 THR A   5       6.170  32.071  50.166  0.00  0.00    +0.034 C 
BRANCH  39  41
ATOM     41  OG1 THR A   5       4.779  30.284  49.412  0.00  0.00    -0.382 OA
ATOM     42  HG1 THR A   5       5.378  29.652  49.884  0.00  0.00    +0.210 HD
ENDBRANCH  39  41
ENDBRANCH   6  39
ENDBRANCH   2   6
ENDBRANCH   1   4
BRANCH   1  43
ATOM     43  C   LYS A   6       2.942  34.595  53.999  0.00  0.00    +0.241 C 
ATOM     44  O   LYS A   6       3.538  35.319  54.801  0.00  0.00    -0.273 OA
ATOM     45  N   HIS A   7       2.076  33.625  54.361  0.00  0.00    -0.297 N 
ATOM     46  H   HIS A   7       1.611  33.046  53.634  0.00  0.00    +0.150 HD
BRANCH  45  47
ATOM     47  CA  HIS A   7       1.795  33.391  55.762  0.00  0.00    +0.155 C 
BRANCH  47  48
ATOM     48  C   HIS A   7       3.077  33.017  56.487  0.00  0.00    +0.241 C 
ATOM     49  O   HIS A   7       3.463  33.684  57.429  0.00  0.00    -0.273 OA
ATOM     50  N   LYS A   8       3.771  32.017  55.988  0.00  0.00    -0.297 N 
ATOM     51  H   LYS A   8       3.388  31.500  55.171  0.00  0.00    +0.150 HD
BRANCH  50  52
ATOM     52  CA  LYS A   8       5.065  31.605  56.541  0.00  0.00    +0.149 C 
BRANCH  52  53
ATOM     53  C   LYS A   8       6.038  32.762  56.627  0.00  0.00    +0.241 C 
ATOM     54  O   LYS A   8       6.701  33.027  57.641  0.00  0.00    -0.273 OA
ATOM     55  N   TRP A   9       6.185  33.518  55.528  0.00  0.00    -0.298 N 
ATOM     56  H   TRP A   9       5.658  33.305  54.657  0.00  0.00    +0.150 HD
BRANCH  55  57
ATOM     57  CA  TRP A   9       7.112  34.654  55.593  0.00  0.00    +0.141 C 
BRANCH  57  58
ATOM     58  C   TRP A   9       6.654  35.643  56.624  0.00  0.00    +0.227 C 
ATOM     59  O   TRP A   9       7.446  36.149  57.422  0.00  0.00    -0.286 OA
ENDBRANCH  57  58
BRANCH  57  60
ATOM     60  CB  TRP A   9       7.280  35.272  54.206  0.00  0.00    +0.056 C 
BRANCH  60  61
ATOM     61  CG  TRP A   9       8.128  34.416  53.314  0.00  0.00    -0.002 A 
ATOM     62  CD1 TRP A   9       8.821  33.308  53.694  0.00  0.00    +0.068 A 
ATOM     63  NE1 TRP A   9       9.486  32.775  52.633  0.00  0.00    -0.352 N 
ATOM     64  HE1 TRP A   9      10.066  31.912  52.660  0.00  0.00    +0.166 HD
ATOM     65  CE2 TRP A   9       9.274  33.549  51.527  0.00  0.00    +0.056 A 
ATOM     66  CZ2 TRP A   9       9.739  33.380  50.230  0.00  0.00    +0.017 A 
ATOM     67  CH2 TRP A   9       9.341  34.306  49.304  0.00  0.00    +0.001 A 
ATOM     68  CZ3 TRP A   9       8.522  35.380  49.679  0.00  0.00    +0.000 A 
ATOM     69  CE3 TRP A   9       8.038  35.533  50.960  0.00  0.00    +0.001 A 
ATOM     70  CD2 TRP A   9       8.416  34.592  51.919  0.00  0.00    +0.013 A 
ENDBRANCH  60  61
ENDBRANCH  57  60
ENDBRANCH  55  57
ENDBRANCH  52  53
BRANCH  52  71
ATOM     71  CB  LYS A   8       5.609  30.534  55.594  0.00  0.00    +0.029 C 
BRANCH  71  72
ATOM     72  CG  LYS A   8       7.022  30.099  55.891  0.00  0.00    +0.000 C 
BRANCH  72  73
ATOM     73  CD  LYS A   8       7.563  29.156  54.822  0.00  0.00    -0.024 C 
BRANCH  73  74
ATOM     74  CE  LYS A   8       8.965  28.695  55.223  0.00  0.00    -0.086 C 
BRANCH  74  75
ATOM     75  NZ  LYS A   8       9.755  28.264  54.036  0.00  0.00    +0.380 N 
ATOM     76  HZ1 LYS A   8      10.700  27.958  54.343  0.00  0.00    -0.089 HD
ATOM     77  HZ2 LYS A   8       9.269  27.474  53.566  0.00  0.00    -0.089 HD
ATOM     78  HZ3 LYS A   8       9.846  29.061  53.374  0.00  0.00    -0.089 HD
ENDBRANCH  74  75
ENDBRANCH  73  74
ENDBRANCH  72  73
ENDBRANCH  71  72
ENDBRANCH  52  71
ENDBRANCH  50  52
ENDBRANCH  47  48
BRANCH  47  79
ATOM     79  CB  HIS A   7       0.692  32.360  55.994  0.00  0.00    +0.076 C 
BRANCH  79  80
ATOM     80  CG  HIS A   7       0.430  32.376  57.484  0.00  0.00    +0.082 A 
ATOM     81  ND1 HIS A   7       0.838  31.348  58.303  0.00  0.00    -0.227 NA
ATOM     82  CE1 HIS A   7       0.542  31.649  59.566  0.00  0.00    +0.199 A 
ATOM     83  NE2 HIS A   7      -0.032  32.851  59.571  0.00  0.00    -0.221 NA
ATOM     84  CD2 HIS A   7      -0.095  33.334  58.285  0.00  0.00    +0.115 A 
ENDBRANCH  79  80
ENDBRANCH  47  79
ENDBRANCH  45  47
ENDBRANCH   1  43
BRANCH   1  85
ATOM     85  CB  LYS A   6       1.991  35.466  51.840  0.00  0.00    +0.029 C 
BRANCH  85  86
ATOM     86  CG  LYS A   6       1.429  36.703  52.508  0.00  0.00    +0.000 C 
BRANCH  86  87
ATOM     87  CD  LYS A   6       0.202  37.129  51.697  0.00  0.00    -0.024 C 
BRANCH  87  88
ATOM     88  CE  LYS A   6      -0.192  38.572  51.967  0.00  0.00    -0.086 C 
BRANCH  88  89
ATOM     89  NZ  LYS A   6      -0.532  38.710  53.425  0.00  0.00    +0.380 N 
ATOM     90  HZ1 LYS A   6       0.297  38.455  53.999  0.00  0.00    -0.089 HD
ATOM     91  HZ2 LYS A   6      -1.324  38.076  53.657  0.00  0.00    -0.089 HD
ATOM     92  HZ3 LYS A   6      -0.804  39.694  53.625  0.00  0.00    -0.089 HD
ENDBRANCH  88  89
ENDBRANCH  87  88
ENDBRANCH  86  87
ENDBRANCH  85  86
ENDBRANCH   1  85
TORSDOF 38
REMARK  Name = ../refined-set-2016/1fo0/1fo0_pocket.pdb
REMARK  423 active torsions:
REMARK  status: ('A' for Active; 'I' for Inactive)
REMARK    1  A    between atoms: _1  and  _3
REMARK    2  A    between atoms: _3  and  _4
REMARK    3  A    between atoms: _3  and  _6
REMARK    4  A    between atoms: _6  and  _7
REMARK    5  A    between atoms: _10  and  _12
REMARK    6  A    between atoms: _12  and  _13
REMARK    7  A    between atoms: _12  and  _15
REMARK    8  A    between atoms: _15  and  _16
REMARK    9  A    between atoms: _16  and  _17
REMARK   10  A    between atoms: _17  and  _18
REMARK   11  A    between atoms: _27  and  _29
REMARK   12  A    between atoms: _29  and  _30
REMARK   13  A    between atoms: _29  and  _32
REMARK   14  A    between atoms: _32  and  _33
REMARK   15  A    between atoms: _38  and  _39
REMARK   16  A    between atoms: _41  and  _43
REMARK   17  A    between atoms: _43  and  _44
REMARK   18  A    between atoms: _43  and  _46
REMARK   19  A    between atoms: _46  and  _47
REMARK   20  A    between atoms: _53  and  _55
REMARK   21  A    between atoms: _55  and  _56
REMARK   22  A    between atoms: _55  and  _58
REMARK   23  A    between atoms: _61  and  _63
REMARK   24  A    between atoms: _63  and  _64
REMARK   25  A    between atoms: _63  and  _66
REMARK   26  A    between atoms: _66  and  _67
REMARK   27  A    between atoms: _70  and  _72
REMARK   28  A    between atoms: _72  and  _73
REMARK   29  A    between atoms: _72  and  _75
REMARK   30  A    between atoms: _75  and  _76
REMARK   31  A    between atoms: _81  and  _82
REMARK   32  A    between atoms: _84  and  _86
REMARK   33  A    between atoms: _86  and  _87
REMARK   34  A    between atoms: _86  and  _89
REMARK   35  A    between atoms: _89  and  _90
REMARK   36  A    between atoms: _90  and  _91
REMARK   37  A    between atoms: _93  and  _95
REMARK   38  A    between atoms: _95  and  _96
REMARK   39  A    between atoms: _95  and  _98
REMARK   40  A    between atoms: _98  and  _99
REMARK   41  A    between atoms: _99  and  _100
REMARK   42  A    between atoms: _103  and  _105
REMARK   43  A    between atoms: _105  and  _106
REMARK   44  A    between atoms: _105  and  _108
REMARK   45  A    between atoms: _111  and  _113
REMARK   46  A    between atoms: _113  and  _114
REMARK   47  A    between atoms: _116  and  _118
REMARK   48  A    between atoms: _118  and  _119
REMARK   49  A    between atoms: _118  and  _121
REMARK   50  A    between atoms: _121  and  _122
REMARK   51  A    between atoms: _128  and  _130
REMARK   52  A    between atoms: _130  and  _131
REMARK   53  A    between atoms: _130  and  _133
REMARK   54  A    between atoms: _136  and  _138
REMARK   55  A    between atoms: _138  and  _139
REMARK   56  A    between atoms: _138  and  _141
REMARK   57  A    between atoms: _141  and  _142
REMARK   58  A    between atoms: _148  and  _150
REMARK   59  A    between atoms: _150  and  _151
REMARK   60  A    between atoms: _150  and  _153
REMARK   61  A    between atoms: _153  and  _154
REMARK   62  A    between atoms: _159  and  _160
REMARK   63  A    between atoms: _162  and  _164
REMARK   64  A    between atoms: _164  and  _165
REMARK   65  A    between atoms: _164  and  _167
REMARK   66  A    between atoms: _167  and  _168
REMARK   67  A    between atoms: _168  and  _169
REMARK   68  A    between atoms: _171  and  _173
REMARK   69  A    between atoms: _173  and  _174
REMARK   70  A    between atoms: _173  and  _176
REMARK   71  A    between atoms: _176  and  _177
REMARK   72  A    between atoms: _177  and  _178
REMARK   73  A    between atoms: _181  and  _183
REMARK   74  A    between atoms: _183  and  _184
REMARK   75  A    between atoms: _183  and  _186
REMARK   76  A    between atoms: _186  and  _187
REMARK   77  A    between atoms: _192  and  _193
REMARK   78  A    between atoms: _195  and  _197
REMARK   79  A    between atoms: _197  and  _198
REMARK   80  A    between atoms: _197  and  _200
REMARK   81  A    between atoms: _200  and  _201
REMARK   82  A    between atoms: _201  and  _202
REMARK   83  A    between atoms: _202  and  _203
REMARK   84  A    between atoms: _212  and  _214
REMARK   85  A    between atoms: _214  and  _215
REMARK   86  A    between atoms: _214  and  _217
REMARK   87  A    between atoms: _217  and  _218
REMARK   88  A    between atoms: _218  and  _219
REMARK   89  A    between atoms: _222  and  _224
REMARK   90  A    between atoms: _224  and  _225
REMARK   91  A    between atoms: _224  and  _227
REMARK   92  A    between atoms: _227  and  _228
REMARK   93  A    between atoms: _228  and  _229
REMARK   94  A    between atoms: _234  and  _236
REMARK   95  A    between atoms: _236  and  _237
REMARK   96  A    between atoms: _236  and  _239
REMARK   97  A    between atoms: _239  and  _240
REMARK   98  A    between atoms: _240  and  _241
REMARK   99  A    between atoms: _241  and  _242
REMARK  100  A    between atoms: _242  and  _243
REMARK  101  A    between atoms: _247  and  _249
REMARK  102  A    between atoms: _249  and  _250
REMARK  103  A    between atoms: _253  and  _255
REMARK  104  A    between atoms: _255  and  _256
REMARK  105  A    between atoms: _255  and  _258
REMARK  106  A    between atoms: _258  and  _259
REMARK  107  A    between atoms: _259  and  _260
REMARK  108  A    between atoms: _260  and  _261
REMARK  109  A    between atoms: _261  and  _262
REMARK  110  A    between atoms: _266  and  _268
REMARK  111  A    between atoms: _268  and  _269
REMARK  112  A    between atoms: _271  and  _273
REMARK  113  A    between atoms: _273  and  _274
REMARK  114  A    between atoms: _273  and  _276
REMARK  115  A    between atoms: _276  and  _277
REMARK  116  A    between atoms: _282  and  _284
REMARK  117  A    between atoms: _284  and  _285
REMARK  118  A    between atoms: _284  and  _287
REMARK  119  A    between atoms: _287  and  _288
REMARK  120  A    between atoms: _288  and  _289
REMARK  121  A    between atoms: _292  and  _294
REMARK  122  A    between atoms: _294  and  _295
REMARK  123  A    between atoms: _294  and  _297
REMARK  124  A    between atoms: _297  and  _298
REMARK  125  A    between atoms: _298  and  _299
REMARK  126  A    between atoms: _304  and  _306
REMARK  127  A    between atoms: _306  and  _307
REMARK  128  A    between atoms: _306  and  _309
REMARK  129  A    between atoms: _309  and  _310
REMARK  130  A    between atoms: _312  and  _314
REMARK  131  A    between atoms: _314  and  _315
REMARK  132  A    between atoms: _314  and  _317
REMARK  133  A    between atoms: _317  and  _318
REMARK  134  A    between atoms: _324  and  _326
REMARK  135  A    between atoms: _326  and  _327
REMARK  136  A    between atoms: _326  and  _329
REMARK  137  A    between atoms: _329  and  _330
REMARK  138  A    between atoms: _330  and  _331
REMARK  139  A    between atoms: _331  and  _332
REMARK  140  A    between atoms: _341  and  _343
REMARK  141  A    between atoms: _343  and  _344
REMARK  142  A    between atoms: _343  and  _346
REMARK  143  A    between atoms: _349  and  _351
REMARK  144  A    between atoms: _351  and  _352
REMARK  145  A    between atoms: _351  and  _354
REMARK  146  A    between atoms: _354  and  _355
REMARK  147  A    between atoms: _358  and  _360
REMARK  148  A    between atoms: _360  and  _361
REMARK  149  A    between atoms: _360  and  _363
REMARK  150  A    between atoms: _363  and  _364
REMARK  151  A    between atoms: _367  and  _369
REMARK  152  A    between atoms: _369  and  _370
REMARK  153  A    between atoms: _369  and  _372
REMARK  154  A    between atoms: _372  and  _373
REMARK  155  A    between atoms: _373  and  _374
REMARK  156  A    between atoms: _374  and  _375
REMARK  157  A    between atoms: _384  and  _386
REMARK  158  A    between atoms: _386  and  _387
REMARK  159  A    between atoms: _386  and  _389
REMARK  160  A    between atoms: _389  and  _390
REMARK  161  A    between atoms: _393  and  _395
REMARK  162  A    between atoms: _395  and  _396
REMARK  163  A    between atoms: _395  and  _398
REMARK  164  A    between atoms: _398  and  _399
REMARK  165  A    between atoms: _402  and  _404
REMARK  166  A    between atoms: _404  and  _405
REMARK  167  A    between atoms: _404  and  _407
REMARK  168  A    between atoms: _407  and  _408
REMARK  169  A    between atoms: _411  and  _413
REMARK  170  A    between atoms: _413  and  _414
REMARK  171  A    between atoms: _413  and  _416
REMARK  172  A    between atoms: _416  and  _417
REMARK  173  A    between atoms: _422  and  _423
REMARK  174  A    between atoms: _425  and  _427
REMARK  175  A    between atoms: _427  and  _428
REMARK  176  A    between atoms: _427  and  _430
REMARK  177  A    between atoms: _430  and  _431
REMARK  178  A    between atoms: _436  and  _437
REMARK  179  A    between atoms: _439  and  _441
REMARK  180  A    between atoms: _441  and  _442
REMARK  181  A    between atoms: _441  and  _444
REMARK  182  A    between atoms: _444  and  _445
REMARK  183  A    between atoms: _448  and  _450
REMARK  184  A    between atoms: _450  and  _451
REMARK  185  A    between atoms: _450  and  _453
REMARK  186  A    between atoms: _456  and  _458
REMARK  187  A    between atoms: _458  and  _459
REMARK  188  A    between atoms: _458  and  _461
REMARK  189  A    between atoms: _461  and  _462
REMARK  190  A    between atoms: _465  and  _467
REMARK  191  A    between atoms: _467  and  _468
REMARK  192  A    between atoms: _467  and  _470
REMARK  193  A    between atoms: _470  and  _471
REMARK  194  A    between atoms: _473  and  _475
REMARK  195  A    between atoms: _475  and  _476
REMARK  196  A    between atoms: _478  and  _480
REMARK  197  A    between atoms: _480  and  _481
REMARK  198  A    between atoms: _480  and  _483
REMARK  199  A    between atoms: _483  and  _484
REMARK  200  A    between atoms: _489  and  _490
REMARK  201  A    between atoms: _492  and  _494
REMARK  202  A    between atoms: _494  and  _495
REMARK  203  A    between atoms: _494  and  _497
REMARK  204  A    between atoms: _497  and  _498
REMARK  205  A    between atoms: _498  and  _499
REMARK  206  A    between atoms: _504  and  _506
REMARK  207  A    between atoms: _506  and  _507
REMARK  208  A    between atoms: _506  and  _509
REMARK  209  A    between atoms: _509  and  _510
REMARK  210  A    between atoms: _510  and  _511
REMARK  211  A    between atoms: _516  and  _518
REMARK  212  A    between atoms: _518  and  _519
REMARK  213  A    between atoms: _518  and  _521
REMARK  214  A    between atoms: _521  and  _522
REMARK  215  A    between atoms: _527  and  _528
REMARK  216  A    between atoms: _530  and  _532
REMARK  217  A    between atoms: _532  and  _533
REMARK  218  A    between atoms: _532  and  _535
REMARK  219  A    between atoms: _535  and  _536
REMARK  220  A    between atoms: _541  and  _542
REMARK  221  A    between atoms: _544  and  _546
REMARK  222  A    between atoms: _546  and  _547
REMARK  223  A    between atoms: _546  and  _549
REMARK  224  A    between atoms: _549  and  _550
REMARK  225  A    between atoms: _555  and  _556
REMARK  226  A    between atoms: _558  and  _560
REMARK  227  A    between atoms: _560  and  _561
REMARK  228  A    between atoms: _560  and  _563
REMARK  229  A    between atoms: _563  and  _564
REMARK  230  A    between atoms: _567  and  _569
REMARK  231  A    between atoms: _569  and  _570
REMARK  232  A    between atoms: _569  and  _572
REMARK  233  A    between atoms: _572  and  _573
REMARK  234  A    between atoms: _583  and  _585
REMARK  235  A    between atoms: _585  and  _586
REMARK  236  A    between atoms: _589  and  _591
REMARK  237  A    between atoms: _591  and  _592
REMARK  238  A    between atoms: _595  and  _597
REMARK  239  A    between atoms: _597  and  _598
REMARK  240  A    between atoms: _597  and  _600
REMARK  241  A    between atoms: _600  and  _601
REMARK  242  A    between atoms: _604  and  _606
REMARK  243  A    between atoms: _606  and  _607
REMARK  244  A    between atoms: _606  and  _609
REMARK  245  A    between atoms: _609  and  _610
REMARK  246  A    between atoms: _613  and  _615
REMARK  247  A    between atoms: _615  and  _616
REMARK  248  A    between atoms: _615  and  _618
REMARK  249  A    between atoms: _618  and  _619
REMARK  250  A    between atoms: _622  and  _624
REMARK  251  A    between atoms: _624  and  _625
REMARK  252  A    between atoms: _624  and  _627
REMARK  253  A    between atoms: _627  and  _628
REMARK  254  A    between atoms: _628  and  _629
REMARK  255  A    between atoms: _629  and  _630
REMARK  256  A    between atoms: _630  and  _631
REMARK  257  A    between atoms: _635  and  _637
REMARK  258  A    between atoms: _637  and  _638
REMARK  259  A    between atoms: _637  and  _640
REMARK  260  A    between atoms: _640  and  _641
REMARK  261  A    between atoms: _646  and  _648
REMARK  262  A    between atoms: _648  and  _649
REMARK  263  A    between atoms: _648  and  _651
REMARK  264  A    between atoms: _651  and  _652
REMARK  265  A    between atoms: _652  and  _653
REMARK  266  A    between atoms: _653  and  _654
REMARK  267  A    between atoms: _654  and  _655
REMARK  268  A    between atoms: _659  and  _661
REMARK  269  A    between atoms: _661  and  _662
REMARK  270  A    between atoms: _661  and  _664
REMARK  271  A    between atoms: _664  and  _665
REMARK  272  A    between atoms: _675  and  _677
REMARK  273  A    between atoms: _677  and  _678
REMARK  274  A    between atoms: _681  and  _683
REMARK  275  A    between atoms: _683  and  _684
REMARK  276  A    between atoms: _686  and  _688
REMARK  277  A    between atoms: _688  and  _689
REMARK  278  A    between atoms: _688  and  _691
REMARK  279  A    between atoms: _691  and  _692
REMARK  280  A    between atoms: _692  and  _693
REMARK  281  A    between atoms: _696  and  _698
REMARK  282  A    between atoms: _698  and  _699
REMARK  283  A    between atoms: _702  and  _704
REMARK  284  A    between atoms: _704  and  _705
REMARK  285  A    between atoms: _704  and  _707
REMARK  286  A    between atoms: _707  and  _708
REMARK  287  A    between atoms: _708  and  _709
REMARK  288  A    between atoms: _712  and  _714
REMARK  289  A    between atoms: _714  and  _715
REMARK  290  A    between atoms: _714  and  _717
REMARK  291  A    between atoms: _717  and  _718
REMARK  292  A    between atoms: _718  and  _719
REMARK  293  A    between atoms: _719  and  _720
REMARK  294  A    between atoms: _729  and  _731
REMARK  295  A    between atoms: _731  and  _732
REMARK  296  A    between atoms: _731  and  _734
REMARK  297  A    between atoms: _734  and  _735
REMARK  298  A    between atoms: _738  and  _740
REMARK  299  A    between atoms: _740  and  _741
REMARK  300  A    between atoms: _740  and  _743
REMARK  301  A    between atoms: _743  and  _744
REMARK  302  A    between atoms: _744  and  _745
REMARK  303  A    between atoms: _745  and  _746
REMARK  304  A    between atoms: _755  and  _757
REMARK  305  A    between atoms: _757  and  _758
REMARK  306  A    between atoms: _761  and  _763
REMARK  307  A    between atoms: _763  and  _764
REMARK  308  A    between atoms: _763  and  _766
REMARK  309  A    between atoms: _766  and  _767
REMARK  310  A    between atoms: _772  and  _773
REMARK  311  A    between atoms: _775  and  _777
REMARK  312  A    between atoms: _777  and  _778
REMARK  313  A    between atoms: _777  and  _780
REMARK  314  A    between atoms: _780  and  _781
REMARK  315  A    between atoms: _784  and  _786
REMARK  316  A    between atoms: _786  and  _787
REMARK  317  A    between atoms: _786  and  _789
REMARK  318  A    between atoms: _789  and  _790
REMARK  319  A    between atoms: _793  and  _795
REMARK  320  A    between atoms: _795  and  _796
REMARK  321  A    between atoms: _795  and  _798
REMARK  322  A    between atoms: _800  and  _802
REMARK  323  A    between atoms: _802  and  _803
REMARK  324  A    between atoms: _802  and  _805
REMARK  325  A    between atoms: _808  and  _810
REMARK  326  A    between atoms: _810  and  _811
REMARK  327  A    between atoms: _810  and  _813
REMARK  328  A    between atoms: _813  and  _814
REMARK  329  A    between atoms: _814  and  _815
REMARK  330  A    between atoms: _818  and  _820
REMARK  331  A    between atoms: _820  and  _821
REMARK  332  A    between atoms: _820  and  _823
REMARK  333  A    between atoms: _823  and  _824
REMARK  334  A    between atoms: _834  and  _836
REMARK  335  A    between atoms: _836  and  _837
REMARK  336  A    between atoms: _836  and  _839
REMARK  337  A    between atoms: _839  and  _840
REMARK  338  A    between atoms: _843  and  _845
REMARK  339  A    between atoms: _845  and  _846
REMARK  340  A    between atoms: _845  and  _848
REMARK  341  A    between atoms: _848  and  _849
REMARK  342  A    between atoms: _849  and  _850
REMARK  343  A    between atoms: _850  and  _851
REMARK  344  A    between atoms: _860  and  _862
REMARK  345  A    between atoms: _862  and  _863
REMARK  346  A    between atoms: _862  and  _865
REMARK  347  A    between atoms: _865  and  _866
REMARK  348  A    between atoms: _871  and  _872
REMARK  349  A    between atoms: _874  and  _876
REMARK  350  A    between atoms: _876  and  _877
REMARK  351  A    between atoms: _876  and  _879
REMARK  352  A    between atoms: _879  and  _880
REMARK  353  A    between atoms: _880  and  _881
REMARK  354  A    between atoms: _886  and  _888
REMARK  355  A    between atoms: _888  and  _889
REMARK  356  A    between atoms: _888  and  _891
REMARK  357  A    between atoms: _891  and  _892
REMARK  358  A    between atoms: _895  and  _897
REMARK  359  A    between atoms: _897  and  _898
REMARK  360  A    between atoms: _897  and  _900
REMARK  361  A    between atoms: _900  and  _901
REMARK  362  A    between atoms: _903  and  _905
REMARK  363  A    between atoms: _905  and  _906
REMARK  364  A    between atoms: _905  and  _908
REMARK  365  A    between atoms: _908  and  _909
REMARK  366  A    between atoms: _911  and  _913
REMARK  367  A    between atoms: _913  and  _914
REMARK  368  A    between atoms: _913  and  _916
REMARK  369  A    between atoms: _916  and  _917
REMARK  370  A    between atoms: _923  and  _925
REMARK  371  A    between atoms: _925  and  _926
REMARK  372  A    between atoms: _925  and  _928
REMARK  373  A    between atoms: _928  and  _929
REMARK  374  A    between atoms: _929  and  _930
REMARK  375  A    between atoms: _930  and  _931
REMARK  376  A    between atoms: _940  and  _942
REMARK  377  A    between atoms: _942  and  _943
REMARK  378  A    between atoms: _942  and  _945
REMARK  379  A    between atoms: _945  and  _946
REMARK  380  A    between atoms: _946  and  _947
REMARK  381  A    between atoms: _947  and  _948
REMARK  382  A    between atoms: _957  and  _959
REMARK  383  A    between atoms: _959  and  _960
REMARK  384  A    between atoms: _962  and  _964
REMARK  385  A    between atoms: _964  and  _965
REMARK  386  A    between atoms: _964  and  _967
REMARK  387  A    between atoms: _967  and  _968
REMARK  388  A    between atoms: _974  and  _975
REMARK  389  A    between atoms: _980  and  _982
REMARK  390  A    between atoms: _982  and  _983
REMARK  391  A    between atoms: _982  and  _985
REMARK  392  A    between atoms: _985  and  _986
REMARK  393  A    between atoms: _996  and  _998
REMARK  394  A    between atoms: _998  and  _999
REMARK  395  A    between atoms: _998  and  _1001
REMARK  396  A    between atoms: _1001  and  _1002
REMARK  397  A    between atoms: _1002  and  _1003
REMARK  398  A    between atoms: _1003  and  _1004
REMARK  399  A    between atoms: _1013  and  _1015
REMARK  400  A    between atoms: _1015  and  _1016
REMARK  401  A    between atoms: _1015  and  _1018
REMARK  402  A    between atoms: _1018  and  _1019
REMARK  403  A    between atoms: _1021  and  _1023
REMARK  404  A    between atoms: _1023  and  _1024
REMARK  405  A    between atoms: _1027  and  _1029
REMARK  406  A    between atoms: _1029  and  _1030
REMARK  407  A    between atoms: _1029  and  _1032
REMARK  408  A    between atoms: _1032  and  _1033
REMARK  409  A    between atoms: _1036  and  _1038
REMARK  410  A    between atoms: _1038  and  _1039
REMARK  411  A    between atoms: _1038  and  _1041
REMARK  412  A    between atoms: _1041  and  _1042
REMARK  413  A    between atoms: _1042  and  _1043
REMARK  414  A    between atoms: _1043  and  _1044
REMARK  415  A    between atoms: _1053  and  _1055
REMARK  416  A    between atoms: _1055  and  _1056
REMARK  417  A    between atoms: _1055  and  _1058
REMARK  418  A    between atoms: _1061  and  _1063
REMARK  419  A    between atoms: _1063  and  _1064
REMARK  420  A    between atoms: _1066  and  _1068
REMARK  421  A    between atoms: _1068  and  _1069
REMARK  422  A    between atoms: _1068  and  _1071
REMARK  423  A    between atoms: _1071  and  _1072
REMARK                            x       y       z     vdW  Elec       q    Type
REMARK                         _______ _______ _______ _____ _____    ______ ____
ROOT
ATOM      1  C   ARG A   6      15.857  40.796  55.724  0.00  0.00    +0.241 C 
ATOM      2  O   ARG A   6      16.931  41.351  55.567  0.00  0.00    -0.273 OA
ATOM      3  N   LEU A   7      14.926  40.686  54.801  0.00  0.00    -0.297 N 
ATOM      4  H   LEU A   7      14.023  40.239  55.057  0.00  0.00    +0.150 HD
ENDROOT
BRANCH   3   5
ATOM      5  CA  LEU A   7      15.104  41.161  53.442  0.00  0.00    +0.149 C 
BRANCH   5   6
ATOM      6  C   LEU A   7      15.319  42.650  53.350  0.00  0.00    +0.241 C 
ATOM      7  N   ARG A   8      14.464  43.422  54.032  0.00  0.00    -0.297 N 
ATOM      8  H   ARG A   8      13.688  42.989  54.572  0.00  0.00    +0.150 HD
ATOM      9  O   LEU A   7      16.249  43.162  52.703  0.00  0.00    -0.273 OA
BRANCH   7  10
ATOM     10  CA  ARG A   8      14.623  44.878  54.016  0.00  0.00    +0.149 C 
BRANCH  10  11
ATOM     11  C   ARG A   8      16.020  45.242  54.484  0.00  0.00    +0.241 C 
ATOM     12  N   ALA A   9      16.542  44.639  55.541  0.00  0.00    -0.297 N 
ATOM     13  H   ALA A   9      15.947  43.953  56.048  0.00  0.00    +0.150 HD
ATOM     14  O   ARG A   8      16.692  46.042  53.837  0.00  0.00    -0.273 OA
BRANCH  12  15
ATOM     15  CA  ALA A   9      17.894  44.867  56.048  0.00  0.00    +0.149 C 
ATOM     16  CB  ALA A   9      18.147  43.943  57.240  0.00  0.00    +0.031 C 
BRANCH  15  17
ATOM     17  C   ALA A   9      18.969  44.667  54.985  0.00  0.00    +0.241 C 
ATOM     18  O   ALA A   9      19.995  45.346  54.898  0.00  0.00    -0.273 OA
ATOM     19  N   TYR A  10      18.777  43.702  54.095  0.00  0.00    -0.297 N 
ATOM     20  H   TYR A  10      17.937  43.094  54.173  0.00  0.00    +0.150 HD
BRANCH  19  21
ATOM     21  CA  TYR A  10      19.722  43.480  53.011  0.00  0.00    +0.153 C 
BRANCH  21  22
ATOM     22  C   TYR A  10      19.469  44.541  51.939  0.00  0.00    +0.241 C 
ATOM     23  N   LEU A  11      18.201  44.841  51.673  0.00  0.00    -0.298 N 
ATOM     24  H   LEU A  11      17.431  44.374  52.193  0.00  0.00    +0.150 HD
ATOM     25  O   TYR A  10      20.404  45.114  51.374  0.00  0.00    -0.273 OA
BRANCH  23  26
ATOM     26  CA  LEU A  11      17.901  45.831  50.645  0.00  0.00    +0.137 C 
BRANCH  26  27
ATOM     27  C   LEU A  11      18.515  47.186  50.896  0.00  0.00    +0.227 C 
ATOM     28  O   LEU A  11      19.206  47.803  50.081  0.00  0.00    -0.286 OA
ENDBRANCH  26  27
BRANCH  26  29
ATOM     29  CB  LEU A  11      16.389  45.893  50.424  0.00  0.00    +0.028 C 
BRANCH  29  30
ATOM     30  CG  LEU A  11      15.829  44.708  49.638  0.00  0.00    +0.002 C 
ATOM     31  CD2 LEU A  11      14.358  44.858  49.288  0.00  0.00    +0.000 C 
ATOM     32  CD1 LEU A  11      16.663  44.381  48.409  0.00  0.00    +0.000 C 
ENDBRANCH  29  30
ENDBRANCH  26  29
ENDBRANCH  23  26
ENDBRANCH  21  22
BRANCH  21  33
ATOM     33  CB  TYR A  10      19.557  42.078  52.450  0.00  0.00    +0.055 C 
BRANCH  33  34
ATOM     34  CG  TYR A  10      20.037  41.930  51.034  0.00  0.00    -0.020 A 
ATOM     35  CD2 TYR A  10      21.377  41.745  50.749  0.00  0.00    -0.001 A 
ATOM     36  CE2 TYR A  10      21.828  41.614  49.449  0.00  0.00    +0.036 A 
ATOM     37  CZ  TYR A  10      20.919  41.689  48.430  0.00  0.00    +0.134 A 
ATOM     38  CE1 TYR A  10      19.577  41.894  48.669  0.00  0.00    +0.036 A 
ATOM     39  CD1 TYR A  10      19.147  42.012  49.977  0.00  0.00    -0.001 A 
BRANCH  37  40
ATOM     40  OH  TYR A  10      21.337  41.560  47.124  0.00  0.00    -0.506 OA
ATOM     41  HH  TYR A  10      22.317  41.419  47.105  0.00  0.00    +0.292 HD
ENDBRANCH  37  40
ENDBRANCH  33  34
ENDBRANCH  21  33
ENDBRANCH  19  21
ENDBRANCH  15  17
ENDBRANCH  12  15
ENDBRANCH  10  11
BRANCH  10  42
ATOM     42  CB  ARG A   8      13.531  45.526  54.803  0.00  0.00    +0.033 C 
BRANCH  42  43
ATOM     43  CG  ARG A   8      13.704  46.988  55.108  0.00  0.00    +0.045 C 
BRANCH  43  44
ATOM     44  CD  ARG A   8      12.413  47.602  55.642  0.00  0.00    +0.174 C 
BRANCH  44  45
ATOM     45  NE  ARG A   8      12.441  49.067  55.546  0.00  0.00    -0.265 N 
ATOM     46  CZ  ARG A   8      11.526  49.938  55.955  0.00  0.00    +0.342 C 
ATOM     47  NH2 ARG A   8      10.398  49.539  56.534  0.00  0.00    -0.292 N 
ATOM     48 HH21 ARG A   8       9.697  50.241  56.846  0.00  0.00    +0.255 HD
ATOM     49 HH22 ARG A   8      10.217  48.525  56.675  0.00  0.00    +0.255 HD
ATOM     50  NH1 ARG A   8      11.714  51.249  55.806  0.00  0.00    -0.292 N 
ATOM     51 HH11 ARG A   8      10.988  51.919  56.131  0.00  0.00    +0.255 HD
ATOM     52 HH12 ARG A   8      12.587  51.602  55.364  0.00  0.00    +0.255 HD
ATOM     53  HE  ARG A   8      13.287  49.475  55.100  0.00  0.00    +0.259 HD
ENDBRANCH  44  45
ENDBRANCH  43  44
ENDBRANCH  42  43
ENDBRANCH  10  42
ENDBRANCH   7  10
ENDBRANCH   5   6
BRANCH   5  54
ATOM     54  CB  LEU A   7      13.933  40.674  52.589  0.00  0.00    +0.029 C 
BRANCH  54  55
ATOM     55  CG  LEU A   7      13.875  41.129  51.134  0.00  0.00    +0.002 C 
ATOM     56  CD2 LEU A   7      12.678  40.516  50.425  0.00  0.00    +0.000 C 
ATOM     57  CD1 LEU A   7      15.137  40.792  50.358  0.00  0.00    +0.000 C 
ENDBRANCH  54  55
ENDBRANCH   5  54
ENDBRANCH   3   5
BRANCH   1  58
ATOM     58  CA  ARG A   6      15.503  40.202  57.096  0.00  0.00    +0.149 C 
BRANCH  58  60
ATOM     59  C   GLU A   5      13.900  42.003  57.489  0.00  0.00    +0.241 C 
ATOM     60  N   ARG A   6      14.166  40.696  57.442  0.00  0.00    -0.297 N 
ATOM     61  H   ARG A   6      13.410  40.014  57.655  0.00  0.00    +0.150 HD
ATOM     62  O   GLU A   5      14.805  42.818  57.225  0.00  0.00    -0.273 OA
BRANCH  59  63
ATOM     63  CA  GLU A   5      12.465  42.432  57.764  0.00  0.00    +0.149 C 
BRANCH  63  65
ATOM     64  C   ALA A   4      11.525  41.720  55.651  0.00  0.00    +0.241 C 
ATOM     65  N   GLU A   5      11.505  41.681  56.982  0.00  0.00    -0.297 N 
ATOM     66  H   GLU A   5      10.789  41.103  57.467  0.00  0.00    +0.150 HD
ATOM     67  O   ALA A   4      12.347  42.377  55.008  0.00  0.00    -0.273 OA
BRANCH  64  68
ATOM     68  CA  ALA A   4      10.517  40.874  54.887  0.00  0.00    +0.149 C 
ATOM     69  CB  ALA A   4       9.202  41.564  54.682  0.00  0.00    +0.031 C 
BRANCH  68  71
ATOM     70  C   GLU A   3      11.535  38.864  55.714  0.00  0.00    +0.241 C 
ATOM     71  N   ALA A   4      10.413  39.571  55.554  0.00  0.00    -0.297 N 
ATOM     72  H   ALA A   4       9.497  39.210  55.891  0.00  0.00    +0.150 HD
ATOM     73  O   GLU A   3      12.620  39.335  55.310  0.00  0.00    -0.273 OA
BRANCH  70  74
ATOM     74  CA  GLU A   3      11.440  37.515  56.401  0.00  0.00    +0.149 C 
BRANCH  74  77
ATOM     75  C   GLY A   2      10.874  38.224  58.641  0.00  0.00    +0.243 C 
ATOM     76  O   GLY A   2      11.936  38.862  58.732  0.00  0.00    -0.273 OA
ATOM     77  N   GLU A   3      10.560  37.569  57.547  0.00  0.00    -0.297 N 
ATOM     78  H   GLU A   3       9.647  37.072  57.503  0.00  0.00    +0.150 HD
BRANCH  75  79
ATOM     79  CA  GLY A   2       9.828  38.179  59.747  0.00  0.00    +0.176 C 
BRANCH  79  82
ATOM     80  C   ALA A   1       9.859  35.812  60.296  0.00  0.00    +0.238 C 
ATOM     81  O   ALA A   1      11.088  35.878  60.516  0.00  0.00    -0.274 OA
ATOM     82  N   GLY A   2       9.178  36.873  59.897  0.00  0.00    -0.296 N 
ATOM     83  H   GLY A   2       8.164  36.780  59.686  0.00  0.00    +0.150 HD
BRANCH  80  84
ATOM     84  CA  ALA A   1       9.185  34.477  60.451  0.00  0.00    +0.145 C 
ATOM     85  CB  ALA A   1       9.875  33.468  59.519  0.00  0.00    +0.028 C 
BRANCH  84  86
ATOM     86  N   ALA A   1       7.767  34.425  60.213  0.00  0.00    -0.238 NA
ATOM     87  H   ALA A   1       7.444  34.101  59.279  0.00  0.00    +0.142 HD
ENDBRANCH  84  86
ENDBRANCH  80  84
ENDBRANCH  79  82
ENDBRANCH  75  79
ENDBRANCH  74  77
BRANCH  74  88
ATOM     88  CB  GLU A   3      10.928  36.394  55.481  0.00  0.00    +0.041 C 
BRANCH  88  89
ATOM     89  CG  GLU A   3      11.687  36.213  54.204  0.00  0.00    +0.116 C 
BRANCH  89  90
ATOM     90  CD  GLU A   3      13.003  35.497  54.274  0.00  0.00    +0.365 C 
ATOM     91  OE2 GLU A   3      13.438  34.956  55.301  0.00  0.00    -0.246 OA
ATOM     92  OE1 GLU A   3      13.651  35.470  53.200  0.00  0.00    -0.246 OA
ENDBRANCH  89  90
ENDBRANCH  88  89
ENDBRANCH  74  88
ENDBRANCH  70  74
ENDBRANCH  68  71
ENDBRANCH  64  68
ENDBRANCH  63  65
BRANCH  63  93
ATOM     93  CB  GLU A   5      12.093  42.424  59.228  0.00  0.00    +0.041 C 
BRANCH  93  94
ATOM     94  CG  GLU A   5      12.495  43.737  59.911  0.00  0.00    +0.116 C 
BRANCH  94  95
ATOM     95  CD  GLU A   5      12.617  43.638  61.417  0.00  0.00    +0.365 C 
ATOM     96  OE2 GLU A   5      13.482  44.343  62.004  0.00  0.00    -0.246 OA
ATOM     97  OE1 GLU A   5      11.838  42.834  61.979  0.00  0.00    -0.246 OA
ENDBRANCH  94  95
ENDBRANCH  93  94
ENDBRANCH  63  93
ENDBRANCH  59  63
ENDBRANCH  58  60
BRANCH  58  98
ATOM     98  CB  ARG A   6      15.521  38.673  56.994  0.00  0.00    +0.033 C 
BRANCH  98  99
ATOM     99  CG  ARG A   6      16.917  38.071  56.995  0.00  0.00    +0.045 C 
BRANCH  99 100
ATOM    100  CD  ARG A   6      16.915  36.571  57.015  0.00  0.00    +0.174 C 
BRANCH 100 101
ATOM    101  NE  ARG A   6      16.244  35.872  55.931  0.00  0.00    -0.265 N 
ATOM    102  HE  ARG A   6      15.243  35.628  56.074  0.00  0.00    +0.259 HD
ATOM    103  CZ  ARG A   6      16.789  35.518  54.780  0.00  0.00    +0.342 C 
ATOM    104  NH2 ARG A   6      18.066  35.809  54.540  0.00  0.00    -0.292 N 
ATOM    105 HH21 ARG A   6      18.628  36.312  55.256  0.00  0.00    +0.255 HD
ATOM    106 HH22 ARG A   6      18.501  35.533  53.637  0.00  0.00    +0.255 HD
ATOM    107  NH1 ARG A   6      16.135  34.868  53.829  0.00  0.00    -0.292 N 
ATOM    108 HH11 ARG A   6      15.137  34.609  53.968  0.00  0.00    +0.255 HD
ATOM    109 HH12 ARG A   6      16.619  34.617  52.944  0.00  0.00    +0.255 HD
ENDBRANCH 100 101
ENDBRANCH  99 100
ENDBRANCH  98  99
ENDBRANCH  58  98
ENDBRANCH   1  58
TORSDOF 43
REMARK  Name = ../refined-set-2016/1fo0/1fo0_pocket.pdb
REMARK  423 active torsions:
REMARK  status: ('A' for Active; 'I' for Inactive)
REMARK    1  A    between atoms: _1  and  _3
REMARK    2  A    between atoms: _3  and  _4
REMARK    3  A    between atoms: _3  and  _6
REMARK    4  A    between atoms: _6  and  _7
REMARK    5  A    between atoms: _10  and  _12
REMARK    6  A    between atoms: _12  and  _13
REMARK    7  A    between atoms: _12  and  _15
REMARK    8  A    between atoms: _15  and  _16
REMARK    9  A    between atoms: _16  and  _17
REMARK   10  A    between atoms: _17  and  _18
REMARK   11  A    between atoms: _27  and  _29
REMARK   12  A    between atoms: _29  and  _30
REMARK   13  A    between atoms: _29  and  _32
REMARK   14  A    between atoms: _32  and  _33
REMARK   15  A    between atoms: _38  and  _39
REMARK   16  A    between atoms: _41  and  _43
REMARK   17  A    between atoms: _43  and  _44
REMARK   18  A    between atoms: _43  and  _46
REMARK   19  A    between atoms: _46  and  _47
REMARK   20  A    between atoms: _53  and  _55
REMARK   21  A    between atoms: _55  and  _56
REMARK   22  A    between atoms: _55  and  _58
REMARK   23  A    between atoms: _61  and  _63
REMARK   24  A    between atoms: _63  and  _64
REMARK   25  A    between atoms: _63  and  _66
REMARK   26  A    between atoms: _66  and  _67
REMARK   27  A    between atoms: _70  and  _72
REMARK   28  A    between atoms: _72  and  _73
REMARK   29  A    between atoms: _72  and  _75
REMARK   30  A    between atoms: _75  and  _76
REMARK   31  A    between atoms: _81  and  _82
REMARK   32  A    between atoms: _84  and  _86
REMARK   33  A    between atoms: _86  and  _87
REMARK   34  A    between atoms: _86  and  _89
REMARK   35  A    between atoms: _89  and  _90
REMARK   36  A    between atoms: _90  and  _91
REMARK   37  A    between atoms: _93  and  _95
REMARK   38  A    between atoms: _95  and  _96
REMARK   39  A    between atoms: _95  and  _98
REMARK   40  A    between atoms: _98  and  _99
REMARK   41  A    between atoms: _99  and  _100
REMARK   42  A    between atoms: _103  and  _105
REMARK   43  A    between atoms: _105  and  _106
REMARK   44  A    between atoms: _105  and  _108
REMARK   45  A    between atoms: _111  and  _113
REMARK   46  A    between atoms: _113  and  _114
REMARK   47  A    between atoms: _116  and  _118
REMARK   48  A    between atoms: _118  and  _119
REMARK   49  A    between atoms: _118  and  _121
REMARK   50  A    between atoms: _121  and  _122
REMARK   51  A    between atoms: _128  and  _130
REMARK   52  A    between atoms: _130  and  _131
REMARK   53  A    between atoms: _130  and  _133
REMARK   54  A    between atoms: _136  and  _138
REMARK   55  A    between atoms: _138  and  _139
REMARK   56  A    between atoms: _138  and  _141
REMARK   57  A    between atoms: _141  and  _142
REMARK   58  A    between atoms: _148  and  _150
REMARK   59  A    between atoms: _150  and  _151
REMARK   60  A    between atoms: _150  and  _153
REMARK   61  A    between atoms: _153  and  _154
REMARK   62  A    between atoms: _159  and  _160
REMARK   63  A    between atoms: _162  and  _164
REMARK   64  A    between atoms: _164  and  _165
REMARK   65  A    between atoms: _164  and  _167
REMARK   66  A    between atoms: _167  and  _168
REMARK   67  A    between atoms: _168  and  _169
REMARK   68  A    between atoms: _171  and  _173
REMARK   69  A    between atoms: _173  and  _174
REMARK   70  A    between atoms: _173  and  _176
REMARK   71  A    between atoms: _176  and  _177
REMARK   72  A    between atoms: _177  and  _178
REMARK   73  A    between atoms: _181  and  _183
REMARK   74  A    between atoms: _183  and  _184
REMARK   75  A    between atoms: _183  and  _186
REMARK   76  A    between atoms: _186  and  _187
REMARK   77  A    between atoms: _192  and  _193
REMARK   78  A    between atoms: _195  and  _197
REMARK   79  A    between atoms: _197  and  _198
REMARK   80  A    between atoms: _197  and  _200
REMARK   81  A    between atoms: _200  and  _201
REMARK   82  A    between atoms: _201  and  _202
REMARK   83  A    between atoms: _202  and  _203
REMARK   84  A    between atoms: _212  and  _214
REMARK   85  A    between atoms: _214  and  _215
REMARK   86  A    between atoms: _214  and  _217
REMARK   87  A    between atoms: _217  and  _218
REMARK   88  A    between atoms: _218  and  _219
REMARK   89  A    between atoms: _222  and  _224
REMARK   90  A    between atoms: _224  and  _225
REMARK   91  A    between atoms: _224  and  _227
REMARK   92  A    between atoms: _227  and  _228
REMARK   93  A    between atoms: _228  and  _229
REMARK   94  A    between atoms: _234  and  _236
REMARK   95  A    between atoms: _236  and  _237
REMARK   96  A    between atoms: _236  and  _239
REMARK   97  A    between atoms: _239  and  _240
REMARK   98  A    between atoms: _240  and  _241
REMARK   99  A    between atoms: _241  and  _242
REMARK  100  A    between atoms: _242  and  _243
REMARK  101  A    between atoms: _247  and  _249
REMARK  102  A    between atoms: _249  and  _250
REMARK  103  A    between atoms: _253  and  _255
REMARK  104  A    between atoms: _255  and  _256
REMARK  105  A    between atoms: _255  and  _258
REMARK  106  A    between atoms: _258  and  _259
REMARK  107  A    between atoms: _259  and  _260
REMARK  108  A    between atoms: _260  and  _261
REMARK  109  A    between atoms: _261  and  _262
REMARK  110  A    between atoms: _266  and  _268
REMARK  111  A    between atoms: _268  and  _269
REMARK  112  A    between atoms: _271  and  _273
REMARK  113  A    between atoms: _273  and  _274
REMARK  114  A    between atoms: _273  and  _276
REMARK  115  A    between atoms: _276  and  _277
REMARK  116  A    between atoms: _282  and  _284
REMARK  117  A    between atoms: _284  and  _285
REMARK  118  A    between atoms: _284  and  _287
REMARK  119  A    between atoms: _287  and  _288
REMARK  120  A    between atoms: _288  and  _289
REMARK  121  A    between atoms: _292  and  _294
REMARK  122  A    between atoms: _294  and  _295
REMARK  123  A    between atoms: _294  and  _297
REMARK  124  A    between atoms: _297  and  _298
REMARK  125  A    between atoms: _298  and  _299
REMARK  126  A    between atoms: _304  and  _306
REMARK  127  A    between atoms: _306  and  _307
REMARK  128  A    between atoms: _306  and  _309
REMARK  129  A    between atoms: _309  and  _310
REMARK  130  A    between atoms: _312  and  _314
REMARK  131  A    between atoms: _314  and  _315
REMARK  132  A    between atoms: _314  and  _317
REMARK  133  A    between atoms: _317  and  _318
REMARK  134  A    between atoms: _324  and  _326
REMARK  135  A    between atoms: _326  and  _327
REMARK  136  A    between atoms: _326  and  _329
REMARK  137  A    between atoms: _329  and  _330
REMARK  138  A    between atoms: _330  and  _331
REMARK  139  A    between atoms: _331  and  _332
REMARK  140  A    between atoms: _341  and  _343
REMARK  141  A    between atoms: _343  and  _344
REMARK  142  A    between atoms: _343  and  _346
REMARK  143  A    between atoms: _349  and  _351
REMARK  144  A    between atoms: _351  and  _352
REMARK  145  A    between atoms: _351  and  _354
REMARK  146  A    between atoms: _354  and  _355
REMARK  147  A    between atoms: _358  and  _360
REMARK  148  A    between atoms: _360  and  _361
REMARK  149  A    between atoms: _360  and  _363
REMARK  150  A    between atoms: _363  and  _364
REMARK  151  A    between atoms: _367  and  _369
REMARK  152  A    between atoms: _369  and  _370
REMARK  153  A    between atoms: _369  and  _372
REMARK  154  A    between atoms: _372  and  _373
REMARK  155  A    between atoms: _373  and  _374
REMARK  156  A    between atoms: _374  and  _375
REMARK  157  A    between atoms: _384  and  _386
REMARK  158  A    between atoms: _386  and  _387
REMARK  159  A    between atoms: _386  and  _389
REMARK  160  A    between atoms: _389  and  _390
REMARK  161  A    between atoms: _393  and  _395
REMARK  162  A    between atoms: _395  and  _396
REMARK  163  A    between atoms: _395  and  _398
REMARK  164  A    between atoms: _398  and  _399
REMARK  165  A    between atoms: _402  and  _404
REMARK  166  A    between atoms: _404  and  _405
REMARK  167  A    between atoms: _404  and  _407
REMARK  168  A    between atoms: _407  and  _408
REMARK  169  A    between atoms: _411  and  _413
REMARK  170  A    between atoms: _413  and  _414
REMARK  171  A    between atoms: _413  and  _416
REMARK  172  A    between atoms: _416  and  _417
REMARK  173  A    between atoms: _422  and  _423
REMARK  174  A    between atoms: _425  and  _427
REMARK  175  A    between atoms: _427  and  _428
REMARK  176  A    between atoms: _427  and  _430
REMARK  177  A    between atoms: _430  and  _431
REMARK  178  A    between atoms: _436  and  _437
REMARK  179  A    between atoms: _439  and  _441
REMARK  180  A    between atoms: _441  and  _442
REMARK  181  A    between atoms: _441  and  _444
REMARK  182  A    between atoms: _444  and  _445
REMARK  183  A    between atoms: _448  and  _450
REMARK  184  A    between atoms: _450  and  _451
REMARK  185  A    between atoms: _450  and  _453
REMARK  186  A    between atoms: _456  and  _458
REMARK  187  A    between atoms: _458  and  _459
REMARK  188  A    between atoms: _458  and  _461
REMARK  189  A    between atoms: _461  and  _462
REMARK  190  A    between atoms: _465  and  _467
REMARK  191  A    between atoms: _467  and  _468
REMARK  192  A    between atoms: _467  and  _470
REMARK  193  A    between atoms: _470  and  _471
REMARK  194  A    between atoms: _473  and  _475
REMARK  195  A    between atoms: _475  and  _476
REMARK  196  A    between atoms: _478  and  _480
REMARK  197  A    between atoms: _480  and  _481
REMARK  198  A    between atoms: _480  and  _483
REMARK  199  A    between atoms: _483  and  _484
REMARK  200  A    between atoms: _489  and  _490
REMARK  201  A    between atoms: _492  and  _494
REMARK  202  A    between atoms: _494  and  _495
REMARK  203  A    between atoms: _494  and  _497
REMARK  204  A    between atoms: _497  and  _498
REMARK  205  A    between atoms: _498  and  _499
REMARK  206  A    between atoms: _504  and  _506
REMARK  207  A    between atoms: _506  and  _507
REMARK  208  A    between atoms: _506  and  _509
REMARK  209  A    between atoms: _509  and  _510
REMARK  210  A    between atoms: _510  and  _511
REMARK  211  A    between atoms: _516  and  _518
REMARK  212  A    between atoms: _518  and  _519
REMARK  213  A    between atoms: _518  and  _521
REMARK  214  A    between atoms: _521  and  _522
REMARK  215  A    between atoms: _527  and  _528
REMARK  216  A    between atoms: _530  and  _532
REMARK  217  A    between atoms: _532  and  _533
REMARK  218  A    between atoms: _532  and  _535
REMARK  219  A    between atoms: _535  and  _536
REMARK  220  A    between atoms: _541  and  _542
REMARK  221  A    between atoms: _544  and  _546
REMARK  222  A    between atoms: _546  and  _547
REMARK  223  A    between atoms: _546  and  _549
REMARK  224  A    between atoms: _549  and  _550
REMARK  225  A    between atoms: _555  and  _556
REMARK  226  A    between atoms: _558  and  _560
REMARK  227  A    between atoms: _560  and  _561
REMARK  228  A    between atoms: _560  and  _563
REMARK  229  A    between atoms: _563  and  _564
REMARK  230  A    between atoms: _567  and  _569
REMARK  231  A    between atoms: _569  and  _570
REMARK  232  A    between atoms: _569  and  _572
REMARK  233  A    between atoms: _572  and  _573
REMARK  234  A    between atoms: _583  and  _585
REMARK  235  A    between atoms: _585  and  _586
REMARK  236  A    between atoms: _589  and  _591
REMARK  237  A    between atoms: _591  and  _592
REMARK  238  A    between atoms: _595  and  _597
REMARK  239  A    between atoms: _597  and  _598
REMARK  240  A    between atoms: _597  and  _600
REMARK  241  A    between atoms: _600  and  _601
REMARK  242  A    between atoms: _604  and  _606
REMARK  243  A    between atoms: _606  and  _607
REMARK  244  A    between atoms: _606  and  _609
REMARK  245  A    between atoms: _609  and  _610
REMARK  246  A    between atoms: _613  and  _615
REMARK  247  A    between atoms: _615  and  _616
REMARK  248  A    between atoms: _615  and  _618
REMARK  249  A    between atoms: _618  and  _619
REMARK  250  A    between atoms: _622  and  _624
REMARK  251  A    between atoms: _624  and  _625
REMARK  252  A    between atoms: _624  and  _627
REMARK  253  A    between atoms: _627  and  _628
REMARK  254  A    between atoms: _628  and  _629
REMARK  255  A    between atoms: _629  and  _630
REMARK  256  A    between atoms: _630  and  _631
REMARK  257  A    between atoms: _635  and  _637
REMARK  258  A    between atoms: _637  and  _638
REMARK  259  A    between atoms: _637  and  _640
REMARK  260  A    between atoms: _640  and  _641
REMARK  261  A    between atoms: _646  and  _648
REMARK  262  A    between atoms: _648  and  _649
REMARK  263  A    between atoms: _648  and  _651
REMARK  264  A    between atoms: _651  and  _652
REMARK  265  A    between atoms: _652  and  _653
REMARK  266  A    between atoms: _653  and  _654
REMARK  267  A    between atoms: _654  and  _655
REMARK  268  A    between atoms: _659  and  _661
REMARK  269  A    between atoms: _661  and  _662
REMARK  270  A    between atoms: _661  and  _664
REMARK  271  A    between atoms: _664  and  _665
REMARK  272  A    between atoms: _675  and  _677
REMARK  273  A    between atoms: _677  and  _678
REMARK  274  A    between atoms: _681  and  _683
REMARK  275  A    between atoms: _683  and  _684
REMARK  276  A    between atoms: _686  and  _688
REMARK  277  A    between atoms: _688  and  _689
REMARK  278  A    between atoms: _688  and  _691
REMARK  279  A    between atoms: _691  and  _692
REMARK  280  A    between atoms: _692  and  _693
REMARK  281  A    between atoms: _696  and  _698
REMARK  282  A    between atoms: _698  and  _699
REMARK  283  A    between atoms: _702  and  _704
REMARK  284  A    between atoms: _704  and  _705
REMARK  285  A    between atoms: _704  and  _707
REMARK  286  A    between atoms: _707  and  _708
REMARK  287  A    between atoms: _708  and  _709
REMARK  288  A    between atoms: _712  and  _714
REMARK  289  A    between atoms: _714  and  _715
REMARK  290  A    between atoms: _714  and  _717
REMARK  291  A    between atoms: _717  and  _718
REMARK  292  A    between atoms: _718  and  _719
REMARK  293  A    between atoms: _719  and  _720
REMARK  294  A    between atoms: _729  and  _731
REMARK  295  A    between atoms: _731  and  _732
REMARK  296  A    between atoms: _731  and  _734
REMARK  297  A    between atoms: _734  and  _735
REMARK  298  A    between atoms: _738  and  _740
REMARK  299  A    between atoms: _740  and  _741
REMARK  300  A    between atoms: _740  and  _743
REMARK  301  A    between atoms: _743  and  _744
REMARK  302  A    between atoms: _744  and  _745
REMARK  303  A    between atoms: _745  and  _746
REMARK  304  A    between atoms: _755  and  _757
REMARK  305  A    between atoms: _757  and  _758
REMARK  306  A    between atoms: _761  and  _763
REMARK  307  A    between atoms: _763  and  _764
REMARK  308  A    between atoms: _763  and  _766
REMARK  309  A    between atoms: _766  and  _767
REMARK  310  A    between atoms: _772  and  _773
REMARK  311  A    between atoms: _775  and  _777
REMARK  312  A    between atoms: _777  and  _778
REMARK  313  A    between atoms: _777  and  _780
REMARK  314  A    between atoms: _780  and  _781
REMARK  315  A    between atoms: _784  and  _786
REMARK  316  A    between atoms: _786  and  _787
REMARK  317  A    between atoms: _786  and  _789
REMARK  318  A    between atoms: _789  and  _790
REMARK  319  A    between atoms: _793  and  _795
REMARK  320  A    between atoms: _795  and  _796
REMARK  321  A    between atoms: _795  and  _798
REMARK  322  A    between atoms: _800  and  _802
REMARK  323  A    between atoms: _802  and  _803
REMARK  324  A    between atoms: _802  and  _805
REMARK  325  A    between atoms: _808  and  _810
REMARK  326  A    between atoms: _810  and  _811
REMARK  327  A    between atoms: _810  and  _813
REMARK  328  A    between atoms: _813  and  _814
REMARK  329  A    between atoms: _814  and  _815
REMARK  330  A    between atoms: _818  and  _820
REMARK  331  A    between atoms: _820  and  _821
REMARK  332  A    between atoms: _820  and  _823
REMARK  333  A    between atoms: _823  and  _824
REMARK  334  A    between atoms: _834  and  _836
REMARK  335  A    between atoms: _836  and  _837
REMARK  336  A    between atoms: _836  and  _839
REMARK  337  A    between atoms: _839  and  _840
REMARK  338  A    between atoms: _843  and  _845
REMARK  339  A    between atoms: _845  and  _846
REMARK  340  A    between atoms: _845  and  _848
REMARK  341  A    between atoms: _848  and  _849
REMARK  342  A    between atoms: _849  and  _850
REMARK  343  A    between atoms: _850  and  _851
REMARK  344  A    between atoms: _860  and  _862
REMARK  345  A    between atoms: _862  and  _863
REMARK  346  A    between atoms: _862  and  _865
REMARK  347  A    between atoms: _865  and  _866
REMARK  348  A    between atoms: _871  and  _872
REMARK  349  A    between atoms: _874  and  _876
REMARK  350  A    between atoms: _876  and  _877
REMARK  351  A    between atoms: _876  and  _879
REMARK  352  A    between atoms: _879  and  _880
REMARK  353  A    between atoms: _880  and  _881
REMARK  354  A    between atoms: _886  and  _888
REMARK  355  A    between atoms: _888  and  _889
REMARK  356  A    between atoms: _888  and  _891
REMARK  357  A    between atoms: _891  and  _892
REMARK  358  A    between atoms: _895  and  _897
REMARK  359  A    between atoms: _897  and  _898
REMARK  360  A    between atoms: _897  and  _900
REMARK  361  A    between atoms: _900  and  _901
REMARK  362  A    between atoms: _903  and  _905
REMARK  363  A    between atoms: _905  and  _906
REMARK  364  A    between atoms: _905  and  _908
REMARK  365  A    between atoms: _908  and  _909
REMARK  366  A    between atoms: _911  and  _913
REMARK  367  A    between atoms: _913  and  _914
REMARK  368  A    between atoms: _913  and  _916
REMARK  369  A    between atoms: _916  and  _917
REMARK  370  A    between atoms: _923  and  _925
REMARK  371  A    between atoms: _925  and  _926
REMARK  372  A    between atoms: _925  and  _928
REMARK  373  A    between atoms: _928  and  _929
REMARK  374  A    between atoms: _929  and  _930
REMARK  375  A    between atoms: _930  and  _931
REMARK  376  A    between atoms: _940  and  _942
REMARK  377  A    between atoms: _942  and  _943
REMARK  378  A    between atoms: _942  and  _945
REMARK  379  A    between atoms: _945  and  _946
REMARK  380  A    between atoms: _946  and  _947
REMARK  381  A    between atoms: _947  and  _948
REMARK  382  A    between atoms: _957  and  _959
REMARK  383  A    between atoms: _959  and  _960
REMARK  384  A    between atoms: _962  and  _964
REMARK  385  A    between atoms: _964  and  _965
REMARK  386  A    between atoms: _964  and  _967
REMARK  387  A    between atoms: _967  and  _968
REMARK  388  A    between atoms: _974  and  _975
REMARK  389  A    between atoms: _980  and  _982
REMARK  390  A    between atoms: _982  and  _983
REMARK  391  A    between atoms: _982  and  _985
REMARK  392  A    between atoms: _985  and  _986
REMARK  393  A    between atoms: _996  and  _998
REMARK  394  A    between atoms: _998  and  _999
REMARK  395  A    between atoms: _998  and  _1001
REMARK  396  A    between atoms: _1001  and  _1002
REMARK  397  A    between atoms: _1002  and  _1003
REMARK  398  A    between atoms: _1003  and  _1004
REMARK  399  A    between atoms: _1013  and  _1015
REMARK  400  A    between atoms: _1015  and  _1016
REMARK  401  A    between atoms: _1015  and  _1018
REMARK  402  A    between atoms: _1018  and  _1019
REMARK  403  A    between atoms: _1021  and  _1023
REMARK  404  A    between atoms: _1023  and  _1024
REMARK  405  A    between atoms: _1027  and  _1029
REMARK  406  A    between atoms: _1029  and  _1030
REMARK  407  A    between atoms: _1029  and  _1032
REMARK  408  A    between atoms: _1032  and  _1033
REMARK  409  A    between atoms: _1036  and  _1038
REMARK  410  A    between atoms: _1038  and  _1039
REMARK  411  A    between atoms: _1038  and  _1041
REMARK  412  A    between atoms: _1041  and  _1042
REMARK  413  A    between atoms: _1042  and  _1043
REMARK  414  A    between atoms: _1043  and  _1044
REMARK  415  A    between atoms: _1053  and  _1055
REMARK  416  A    between atoms: _1055  and  _1056
REMARK  417  A    between atoms: _1055  and  _1058
REMARK  418  A    between atoms: _1061  and  _1063
REMARK  419  A    between atoms: _1063  and  _1064
REMARK  420  A    between atoms: _1066  and  _1068
REMARK  421  A    between atoms: _1068  and  _1069
REMARK  422  A    between atoms: _1068  and  _1071
REMARK  423  A    between atoms: _1071  and  _1072
REMARK                            x       y       z     vdW  Elec       q    Type
REMARK                         _______ _______ _______ _____ _____    ______ ____
ROOT
ATOM      1  CA  GLU A   4      26.588  49.598  49.774  0.00  0.00    +0.149 C 
ENDROOT
BRANCH   1   2
ATOM      2  C   GLU A   4      27.335  48.900  48.660  0.00  0.00    +0.241 C 
ATOM      3  N   TRP A   5      26.967  47.653  48.366  0.00  0.00    -0.297 N 
ATOM      4  H   TRP A   5      26.202  47.192  48.898  0.00  0.00    +0.150 HD
ATOM      5  O   GLU A   4      28.222  49.488  48.037  0.00  0.00    -0.273 OA
BRANCH   3   6
ATOM      6  CA  TRP A   5      27.646  46.943  47.294  0.00  0.00    +0.153 C 
BRANCH   6   7
ATOM      7  C   TRP A   5      27.471  47.618  45.958  0.00  0.00    +0.241 C 
ATOM      8  N   LEU A   6      26.290  48.154  45.690  0.00  0.00    -0.298 N 
ATOM      9  H   LEU A   6      25.541  48.074  46.407  0.00  0.00    +0.150 HD
ATOM     10  O   TRP A   5      28.382  47.694  45.131  0.00  0.00    -0.273 OA
BRANCH   8  11
ATOM     11  CA  LEU A   6      25.979  48.849  44.450  0.00  0.00    +0.137 C 
BRANCH  11  12
ATOM     12  C   LEU A   6      26.978  49.989  44.264  0.00  0.00    +0.227 C 
ATOM     13  O   LEU A   6      27.659  50.137  43.253  0.00  0.00    -0.286 OA
ENDBRANCH  11  12
BRANCH  11  14
ATOM     14  CB  LEU A   6      24.560  49.425  44.554  0.00  0.00    +0.028 C 
BRANCH  14  15
ATOM     15  CG  LEU A   6      24.104  50.213  43.319  0.00  0.00    +0.002 C 
ATOM     16  CD2 LEU A   6      22.611  50.483  43.428  0.00  0.00    +0.000 C 
ATOM     17  CD1 LEU A   6      24.457  49.502  42.022  0.00  0.00    +0.000 C 
ENDBRANCH  14  15
ENDBRANCH  11  14
ENDBRANCH   8  11
ENDBRANCH   6   7
BRANCH   6  18
ATOM     18  CB  TRP A   5      27.300  45.449  47.289  0.00  0.00    +0.057 C 
BRANCH  18  19
ATOM     19  CG  TRP A   5      28.137  44.742  48.333  0.00  0.00    -0.002 A 
ATOM     20  CD1 TRP A   5      27.785  44.543  49.640  0.00  0.00    +0.068 A 
ATOM     21  NE1 TRP A   5      28.790  43.893  50.313  0.00  0.00    -0.352 N 
ATOM     22  HE1 TRP A   5      28.768  43.612  51.314  0.00  0.00    +0.166 HD
ATOM     23  CE2 TRP A   5      29.819  43.678  49.449  0.00  0.00    +0.056 A 
ATOM     24  CZ2 TRP A   5      31.050  43.062  49.666  0.00  0.00    +0.017 A 
ATOM     25  CH2 TRP A   5      31.899  42.959  48.595  0.00  0.00    +0.001 A 
ATOM     26  CZ3 TRP A   5      31.566  43.457  47.337  0.00  0.00    +0.000 A 
ATOM     27  CE3 TRP A   5      30.345  44.059  47.129  0.00  0.00    +0.001 A 
ATOM     28  CD2 TRP A   5      29.454  44.197  48.194  0.00  0.00    +0.013 A 
ENDBRANCH  18  19
ENDBRANCH   6  18
ENDBRANCH   3   6
ENDBRANCH   1   2
BRANCH   1  30
ATOM     29  C   VAL A   3      24.510  49.849  48.503  0.00  0.00    +0.241 C 
ATOM     30  N   GLU A   4      25.148  49.521  49.618  0.00  0.00    -0.297 N 
ATOM     31  H   GLU A   4      24.584  49.190  50.427  0.00  0.00    +0.150 HD
ATOM     32  O   VAL A   3      25.105  50.169  47.469  0.00  0.00    -0.273 OA
BRANCH  29  33
ATOM     33  CA  VAL A   3      23.002  49.745  48.449  0.00  0.00    +0.149 C 
BRANCH  33  35
ATOM     34  C   CYS A   2      23.103  47.342  48.032  0.00  0.00    +0.242 C 
ATOM     35  N   VAL A   3      22.601  48.375  48.705  0.00  0.00    -0.297 N 
ATOM     36  H   VAL A   3      21.893  48.192  49.444  0.00  0.00    +0.150 HD
ATOM     37  O   CYS A   2      23.928  47.495  47.134  0.00  0.00    -0.273 OA
BRANCH  34  38
ATOM     38  CA  CYS A   2      22.550  45.967  48.426  0.00  0.00    +0.160 C 
BRANCH  38  40
ATOM     39  C   THR A   1      24.031  45.675  50.303  0.00  0.00    +0.241 C 
ATOM     40  N   CYS A   2      22.772  45.662  49.844  0.00  0.00    -0.296 N 
ATOM     41  H   CYS A   2      21.975  45.442  50.475  0.00  0.00    +0.150 HD
ATOM     42  O   THR A   1      25.021  45.916  49.606  0.00  0.00    -0.274 OA
BRANCH  39  43
ATOM     43  CA  THR A   1      24.241  45.328  51.749  0.00  0.00    +0.172 C 
BRANCH  43  44
ATOM     44  N   THR A   1      23.389  46.084  52.631  0.00  0.00    -0.236 NA
ATOM     45  H   THR A   1      22.898  45.568  53.389  0.00  0.00    +0.142 HD
ENDBRANCH  43  44
BRANCH  43  46
ATOM     46  CB  THR A   1      24.006  43.813  52.002  0.00  0.00    +0.135 C 
ATOM     47  CG2 THR A   1      24.606  42.944  50.921  0.00  0.00    +0.034 C 
BRANCH  46  48
ATOM     48  OG1 THR A   1      24.620  43.491  53.261  0.00  0.00    -0.383 OA
ATOM     49  HG1 THR A   1      24.204  44.033  53.978  0.00  0.00    +0.210 HD
ENDBRANCH  46  48
ENDBRANCH  43  46
ENDBRANCH  39  43
ENDBRANCH  38  40
BRANCH  38  50
ATOM     50  CB  CYS A   2      21.063  45.852  48.076  0.00  0.00    +0.098 C 
ATOM     51  SG  CYS A   2      20.842  45.010  46.472  0.00  0.00    -0.080 S 
ENDBRANCH  38  50
ENDBRANCH  34  38
ENDBRANCH  33  35
BRANCH  33  52
ATOM     52  CB  VAL A   3      22.333  50.653  49.481  0.00  0.00    +0.027 C 
ATOM     53  CG2 VAL A   3      22.935  52.029  49.483  0.00  0.00    +0.002 C 
ATOM     54  CG1 VAL A   3      20.835  50.716  49.200  0.00  0.00    +0.002 C 
ENDBRANCH  33  52
ENDBRANCH  29  33
ENDBRANCH   1  30
BRANCH   1  55
ATOM     55  CB  GLU A   4      27.102  49.136  51.115  0.00  0.00    +0.041 C 
BRANCH  55  56
ATOM     56  CG  GLU A   4      26.329  49.411  52.365  0.00  0.00    +0.116 C 
BRANCH  56  57
ATOM     57  CD  GLU A   4      25.708  50.761  52.595  0.00  0.00    +0.365 C 
ATOM     58  OE2 GLU A   4      24.945  50.906  53.600  0.00  0.00    -0.246 OA
ATOM     59  OE1 GLU A   4      25.910  51.735  51.824  0.00  0.00    -0.246 OA
ENDBRANCH  56  57
ENDBRANCH  55  56
ENDBRANCH   1  55
TORSDOF 23
REMARK  Name = ../refined-set-2016/1fo0/1fo0_pocket.pdb
REMARK  423 active torsions:
REMARK  status: ('A' for Active; 'I' for Inactive)
REMARK    1  A    between atoms: _1  and  _3
REMARK    2  A    between atoms: _3  and  _4
REMARK    3  A    between atoms: _3  and  _6
REMARK    4  A    between atoms: _6  and  _7
REMARK    5  A    between atoms: _10  and  _12
REMARK    6  A    between atoms: _12  and  _13
REMARK    7  A    between atoms: _12  and  _15
REMARK    8  A    between atoms: _15  and  _16
REMARK    9  A    between atoms: _16  and  _17
REMARK   10  A    between atoms: _17  and  _18
REMARK   11  A    between atoms: _27  and  _29
REMARK   12  A    between atoms: _29  and  _30
REMARK   13  A    between atoms: _29  and  _32
REMARK   14  A    between atoms: _32  and  _33
REMARK   15  A    between atoms: _38  and  _39
REMARK   16  A    between atoms: _41  and  _43
REMARK   17  A    between atoms: _43  and  _44
REMARK   18  A    between atoms: _43  and  _46
REMARK   19  A    between atoms: _46  and  _47
REMARK   20  A    between atoms: _53  and  _55
REMARK   21  A    between atoms: _55  and  _56
REMARK   22  A    between atoms: _55  and  _58
REMARK   23  A    between atoms: _61  and  _63
REMARK   24  A    between atoms: _63  and  _64
REMARK   25  A    between atoms: _63  and  _66
REMARK   26  A    between atoms: _66  and  _67
REMARK   27  A    between atoms: _70  and  _72
REMARK   28  A    between atoms: _72  and  _73
REMARK   29  A    between atoms: _72  and  _75
REMARK   30  A    between atoms: _75  and  _76
REMARK   31  A    between atoms: _81  and  _82
REMARK   32  A    between atoms: _84  and  _86
REMARK   33  A    between atoms: _86  and  _87
REMARK   34  A    between atoms: _86  and  _89
REMARK   35  A    between atoms: _89  and  _90
REMARK   36  A    between atoms: _90  and  _91
REMARK   37  A    between atoms: _93  and  _95
REMARK   38  A    between atoms: _95  and  _96
REMARK   39  A    between atoms: _95  and  _98
REMARK   40  A    between atoms: _98  and  _99
REMARK   41  A    between atoms: _99  and  _100
REMARK   42  A    between atoms: _103  and  _105
REMARK   43  A    between atoms: _105  and  _106
REMARK   44  A    between atoms: _105  and  _108
REMARK   45  A    between atoms: _111  and  _113
REMARK   46  A    between atoms: _113  and  _114
REMARK   47  A    between atoms: _116  and  _118
REMARK   48  A    between atoms: _118  and  _119
REMARK   49  A    between atoms: _118  and  _121
REMARK   50  A    between atoms: _121  and  _122
REMARK   51  A    between atoms: _128  and  _130
REMARK   52  A    between atoms: _130  and  _131
REMARK   53  A    between atoms: _130  and  _133
REMARK   54  A    between atoms: _136  and  _138
REMARK   55  A    between atoms: _138  and  _139
REMARK   56  A    between atoms: _138  and  _141
REMARK   57  A    between atoms: _141  and  _142
REMARK   58  A    between atoms: _148  and  _150
REMARK   59  A    between atoms: _150  and  _151
REMARK   60  A    between atoms: _150  and  _153
REMARK   61  A    between atoms: _153  and  _154
REMARK   62  A    between atoms: _159  and  _160
REMARK   63  A    between atoms: _162  and  _164
REMARK   64  A    between atoms: _164  and  _165
REMARK   65  A    between atoms: _164  and  _167
REMARK   66  A    between atoms: _167  and  _168
REMARK   67  A    between atoms: _168  and  _169
REMARK   68  A    between atoms: _171  and  _173
REMARK   69  A    between atoms: _173  and  _174
REMARK   70  A    between atoms: _173  and  _176
REMARK   71  A    between atoms: _176  and  _177
REMARK   72  A    between atoms: _177  and  _178
REMARK   73  A    between atoms: _181  and  _183
REMARK   74  A    between atoms: _183  and  _184
REMARK   75  A    between atoms: _183  and  _186
REMARK   76  A    between atoms: _186  and  _187
REMARK   77  A    between atoms: _192  and  _193
REMARK   78  A    between atoms: _195  and  _197
REMARK   79  A    between atoms: _197  and  _198
REMARK   80  A    between atoms: _197  and  _200
REMARK   81  A    between atoms: _200  and  _201
REMARK   82  A    between atoms: _201  and  _202
REMARK   83  A    between atoms: _202  and  _203
REMARK   84  A    between atoms: _212  and  _214
REMARK   85  A    between atoms: _214  and  _215
REMARK   86  A    between atoms: _214  and  _217
REMARK   87  A    between atoms: _217  and  _218
REMARK   88  A    between atoms: _218  and  _219
REMARK   89  A    between atoms: _222  and  _224
REMARK   90  A    between atoms: _224  and  _225
REMARK   91  A    between atoms: _224  and  _227
REMARK   92  A    between atoms: _227  and  _228
REMARK   93  A    between atoms: _228  and  _229
REMARK   94  A    between atoms: _234  and  _236
REMARK   95  A    between atoms: _236  and  _237
REMARK   96  A    between atoms: _236  and  _239
REMARK   97  A    between atoms: _239  and  _240
REMARK   98  A    between atoms: _240  and  _241
REMARK   99  A    between atoms: _241  and  _242
REMARK  100  A    between atoms: _242  and  _243
REMARK  101  A    between atoms: _247  and  _249
REMARK  102  A    between atoms: _249  and  _250
REMARK  103  A    between atoms: _253  and  _255
REMARK  104  A    between atoms: _255  and  _256
REMARK  105  A    between atoms: _255  and  _258
REMARK  106  A    between atoms: _258  and  _259
REMARK  107  A    between atoms: _259  and  _260
REMARK  108  A    between atoms: _260  and  _261
REMARK  109  A    between atoms: _261  and  _262
REMARK  110  A    between atoms: _266  and  _268
REMARK  111  A    between atoms: _268  and  _269
REMARK  112  A    between atoms: _271  and  _273
REMARK  113  A    between atoms: _273  and  _274
REMARK  114  A    between atoms: _273  and  _276
REMARK  115  A    between atoms: _276  and  _277
REMARK  116  A    between atoms: _282  and  _284
REMARK  117  A    between atoms: _284  and  _285
REMARK  118  A    between atoms: _284  and  _287
REMARK  119  A    between atoms: _287  and  _288
REMARK  120  A    between atoms: _288  and  _289
REMARK  121  A    between atoms: _292  and  _294
REMARK  122  A    between atoms: _294  and  _295
REMARK  123  A    between atoms: _294  and  _297
REMARK  124  A    between atoms: _297  and  _298
REMARK  125  A    between atoms: _298  and  _299
REMARK  126  A    between atoms: _304  and  _306
REMARK  127  A    between atoms: _306  and  _307
REMARK  128  A    between atoms: _306  and  _309
REMARK  129  A    between atoms: _309  and  _310
REMARK  130  A    between atoms: _312  and  _314
REMARK  131  A    between atoms: _314  and  _315
REMARK  132  A    between atoms: _314  and  _317
REMARK  133  A    between atoms: _317  and  _318
REMARK  134  A    between atoms: _324  and  _326
REMARK  135  A    between atoms: _326  and  _327
REMARK  136  A    between atoms: _326  and  _329
REMARK  137  A    between atoms: _329  and  _330
REMARK  138  A    between atoms: _330  and  _331
REMARK  139  A    between atoms: _331  and  _332
REMARK  140  A    between atoms: _341  and  _343
REMARK  141  A    between atoms: _343  and  _344
REMARK  142  A    between atoms: _343  and  _346
REMARK  143  A    between atoms: _349  and  _351
REMARK  144  A    between atoms: _351  and  _352
REMARK  145  A    between atoms: _351  and  _354
REMARK  146  A    between atoms: _354  and  _355
REMARK  147  A    between atoms: _358  and  _360
REMARK  148  A    between atoms: _360  and  _361
REMARK  149  A    between atoms: _360  and  _363
REMARK  150  A    between atoms: _363  and  _364
REMARK  151  A    between atoms: _367  and  _369
REMARK  152  A    between atoms: _369  and  _370
REMARK  153  A    between atoms: _369  and  _372
REMARK  154  A    between atoms: _372  and  _373
REMARK  155  A    between atoms: _373  and  _374
REMARK  156  A    between atoms: _374  and  _375
REMARK  157  A    between atoms: _384  and  _386
REMARK  158  A    between atoms: _386  and  _387
REMARK  159  A    between atoms: _386  and  _389
REMARK  160  A    between atoms: _389  and  _390
REMARK  161  A    between atoms: _393  and  _395
REMARK  162  A    between atoms: _395  and  _396
REMARK  163  A    between atoms: _395  and  _398
REMARK  164  A    between atoms: _398  and  _399
REMARK  165  A    between atoms: _402  and  _404
REMARK  166  A    between atoms: _404  and  _405
REMARK  167  A    between atoms: _404  and  _407
REMARK  168  A    between atoms: _407  and  _408
REMARK  169  A    between atoms: _411  and  _413
REMARK  170  A    between atoms: _413  and  _414
REMARK  171  A    between atoms: _413  and  _416
REMARK  172  A    between atoms: _416  and  _417
REMARK  173  A    between atoms: _422  and  _423
REMARK  174  A    between atoms: _425  and  _427
REMARK  175  A    between atoms: _427  and  _428
REMARK  176  A    between atoms: _427  and  _430
REMARK  177  A    between atoms: _430  and  _431
REMARK  178  A    between atoms: _436  and  _437
REMARK  179  A    between atoms: _439  and  _441
REMARK  180  A    between atoms: _441  and  _442
REMARK  181  A    between atoms: _441  and  _444
REMARK  182  A    between atoms: _444  and  _445
REMARK  183  A    between atoms: _448  and  _450
REMARK  184  A    between atoms: _450  and  _451
REMARK  185  A    between atoms: _450  and  _453
REMARK  186  A    between atoms: _456  and  _458
REMARK  187  A    between atoms: _458  and  _459
REMARK  188  A    between atoms: _458  and  _461
REMARK  189  A    between atoms: _461  and  _462
REMARK  190  A    between atoms: _465  and  _467
REMARK  191  A    between atoms: _467  and  _468
REMARK  192  A    between atoms: _467  and  _470
REMARK  193  A    between atoms: _470  and  _471
REMARK  194  A    between atoms: _473  and  _475
REMARK  195  A    between atoms: _475  and  _476
REMARK  196  A    between atoms: _478  and  _480
REMARK  197  A    between atoms: _480  and  _481
REMARK  198  A    between atoms: _480  and  _483
REMARK  199  A    between atoms: _483  and  _484
REMARK  200  A    between atoms: _489  and  _490
REMARK  201  A    between atoms: _492  and  _494
REMARK  202  A    between atoms: _494  and  _495
REMARK  203  A    between atoms: _494  and  _497
REMARK  204  A    between atoms: _497  and  _498
REMARK  205  A    between atoms: _498  and  _499
REMARK  206  A    between atoms: _504  and  _506
REMARK  207  A    between atoms: _506  and  _507
REMARK  208  A    between atoms: _506  and  _509
REMARK  209  A    between atoms: _509  and  _510
REMARK  210  A    between atoms: _510  and  _511
REMARK  211  A    between atoms: _516  and  _518
REMARK  212  A    between atoms: _518  and  _519
REMARK  213  A    between atoms: _518  and  _521
REMARK  214  A    between atoms: _521  and  _522
REMARK  215  A    between atoms: _527  and  _528
REMARK  216  A    between atoms: _530  and  _532
REMARK  217  A    between atoms: _532  and  _533
REMARK  218  A    between atoms: _532  and  _535
REMARK  219  A    between atoms: _535  and  _536
REMARK  220  A    between atoms: _541  and  _542
REMARK  221  A    between atoms: _544  and  _546
REMARK  222  A    between atoms: _546  and  _547
REMARK  223  A    between atoms: _546  and  _549
REMARK  224  A    between atoms: _549  and  _550
REMARK  225  A    between atoms: _555  and  _556
REMARK  226  A    between atoms: _558  and  _560
REMARK  227  A    between atoms: _560  and  _561
REMARK  228  A    between atoms: _560  and  _563
REMARK  229  A    between atoms: _563  and  _564
REMARK  230  A    between atoms: _567  and  _569
REMARK  231  A    between atoms: _569  and  _570
REMARK  232  A    between atoms: _569  and  _572
REMARK  233  A    between atoms: _572  and  _573
REMARK  234  A    between atoms: _583  and  _585
REMARK  235  A    between atoms: _585  and  _586
REMARK  236  A    between atoms: _589  and  _591
REMARK  237  A    between atoms: _591  and  _592
REMARK  238  A    between atoms: _595  and  _597
REMARK  239  A    between atoms: _597  and  _598
REMARK  240  A    between atoms: _597  and  _600
REMARK  241  A    between atoms: _600  and  _601
REMARK  242  A    between atoms: _604  and  _606
REMARK  243  A    between atoms: _606  and  _607
REMARK  244  A    between atoms: _606  and  _609
REMARK  245  A    between atoms: _609  and  _610
REMARK  246  A    between atoms: _613  and  _615
REMARK  247  A    between atoms: _615  and  _616
REMARK  248  A    between atoms: _615  and  _618
REMARK  249  A    between atoms: _618  and  _619
REMARK  250  A    between atoms: _622  and  _624
REMARK  251  A    between atoms: _624  and  _625
REMARK  252  A    between atoms: _624  and  _627
REMARK  253  A    between atoms: _627  and  _628
REMARK  254  A    between atoms: _628  and  _629
REMARK  255  A    between atoms: _629  and  _630
REMARK  256  A    between atoms: _630  and  _631
REMARK  257  A    between atoms: _635  and  _637
REMARK  258  A    between atoms: _637  and  _638
REMARK  259  A    between atoms: _637  and  _640
REMARK  260  A    between atoms: _640  and  _641
REMARK  261  A    between atoms: _646  and  _648
REMARK  262  A    between atoms: _648  and  _649
REMARK  263  A    between atoms: _648  and  _651
REMARK  264  A    between atoms: _651  and  _652
REMARK  265  A    between atoms: _652  and  _653
REMARK  266  A    between atoms: _653  and  _654
REMARK  267  A    between atoms: _654  and  _655
REMARK  268  A    between atoms: _659  and  _661
REMARK  269  A    between atoms: _661  and  _662
REMARK  270  A    between atoms: _661  and  _664
REMARK  271  A    between atoms: _664  and  _665
REMARK  272  A    between atoms: _675  and  _677
REMARK  273  A    between atoms: _677  and  _678
REMARK  274  A    between atoms: _681  and  _683
REMARK  275  A    between atoms: _683  and  _684
REMARK  276  A    between atoms: _686  and  _688
REMARK  277  A    between atoms: _688  and  _689
REMARK  278  A    between atoms: _688  and  _691
REMARK  279  A    between atoms: _691  and  _692
REMARK  280  A    between atoms: _692  and  _693
REMARK  281  A    between atoms: _696  and  _698
REMARK  282  A    between atoms: _698  and  _699
REMARK  283  A    between atoms: _702  and  _704
REMARK  284  A    between atoms: _704  and  _705
REMARK  285  A    between atoms: _704  and  _707
REMARK  286  A    between atoms: _707  and  _708
REMARK  287  A    between atoms: _708  and  _709
REMARK  288  A    between atoms: _712  and  _714
REMARK  289  A    between atoms: _714  and  _715
REMARK  290  A    between atoms: _714  and  _717
REMARK  291  A    between atoms: _717  and  _718
REMARK  292  A    between atoms: _718  and  _719
REMARK  293  A    between atoms: _719  and  _720
REMARK  294  A    between atoms: _729  and  _731
REMARK  295  A    between atoms: _731  and  _732
REMARK  296  A    between atoms: _731  and  _734
REMARK  297  A    between atoms: _734  and  _735
REMARK  298  A    between atoms: _738  and  _740
REMARK  299  A    between atoms: _740  and  _741
REMARK  300  A    between atoms: _740  and  _743
REMARK  301  A    between atoms: _743  and  _744
REMARK  302  A    between atoms: _744  and  _745
REMARK  303  A    between atoms: _745  and  _746
REMARK  304  A    between atoms: _755  and  _757
REMARK  305  A    between atoms: _757  and  _758
REMARK  306  A    between atoms: _761  and  _763
REMARK  307  A    between atoms: _763  and  _764
REMARK  308  A    between atoms: _763  and  _766
REMARK  309  A    between atoms: _766  and  _767
REMARK  310  A    between atoms: _772  and  _773
REMARK  311  A    between atoms: _775  and  _777
REMARK  312  A    between atoms: _777  and  _778
REMARK  313  A    between atoms: _777  and  _780
REMARK  314  A    between atoms: _780  and  _781
REMARK  315  A    between atoms: _784  and  _786
REMARK  316  A    between atoms: _786  and  _787
REMARK  317  A    between atoms: _786  and  _789
REMARK  318  A    between atoms: _789  and  _790
REMARK  319  A    between atoms: _793  and  _795
REMARK  320  A    between atoms: _795  and  _796
REMARK  321  A    between atoms: _795  and  _798
REMARK  322  A    between atoms: _800  and  _802
REMARK  323  A    between atoms: _802  and  _803
REMARK  324  A    between atoms: _802  and  _805
REMARK  325  A    between atoms: _808  and  _810
REMARK  326  A    between atoms: _810  and  _811
REMARK  327  A    between atoms: _810  and  _813
REMARK  328  A    between atoms: _813  and  _814
REMARK  329  A    between atoms: _814  and  _815
REMARK  330  A    between atoms: _818  and  _820
REMARK  331  A    between atoms: _820  and  _821
REMARK  332  A    between atoms: _820  and  _823
REMARK  333  A    between atoms: _823  and  _824
REMARK  334  A    between atoms: _834  and  _836
REMARK  335  A    between atoms: _836  and  _837
REMARK  336  A    between atoms: _836  and  _839
REMARK  337  A    between atoms: _839  and  _840
REMARK  338  A    between atoms: _843  and  _845
REMARK  339  A    between atoms: _845  and  _846
REMARK  340  A    between atoms: _845  and  _848
REMARK  341  A    between atoms: _848  and  _849
REMARK  342  A    between atoms: _849  and  _850
REMARK  343  A    between atoms: _850  and  _851
REMARK  344  A    between atoms: _860  and  _862
REMARK  345  A    between atoms: _862  and  _863
REMARK  346  A    between atoms: _862  and  _865
REMARK  347  A    between atoms: _865  and  _866
REMARK  348  A    between atoms: _871  and  _872
REMARK  349  A    between atoms: _874  and  _876
REMARK  350  A    between atoms: _876  and  _877
REMARK  351  A    between atoms: _876  and  _879
REMARK  352  A    between atoms: _879  and  _880
REMARK  353  A    between atoms: _880  and  _881
REMARK  354  A    between atoms: _886  and  _888
REMARK  355  A    between atoms: _888  and  _889
REMARK  356  A    between atoms: _888  and  _891
REMARK  357  A    between atoms: _891  and  _892
REMARK  358  A    between atoms: _895  and  _897
REMARK  359  A    between atoms: _897  and  _898
REMARK  360  A    between atoms: _897  and  _900
REMARK  361  A    between atoms: _900  and  _901
REMARK  362  A    between atoms: _903  and  _905
REMARK  363  A    between atoms: _905  and  _906
REMARK  364  A    between atoms: _905  and  _908
REMARK  365  A    between atoms: _908  and  _909
REMARK  366  A    between atoms: _911  and  _913
REMARK  367  A    between atoms: _913  and  _914
REMARK  368  A    between atoms: _913  and  _916
REMARK  369  A    between atoms: _916  and  _917
REMARK  370  A    between atoms: _923  and  _925
REMARK  371  A    between atoms: _925  and  _926
REMARK  372  A    between atoms: _925  and  _928
REMARK  373  A    between atoms: _928  and  _929
REMARK  374  A    between atoms: _929  and  _930
REMARK  375  A    between atoms: _930  and  _931
REMARK  376  A    between atoms: _940  and  _942
REMARK  377  A    between atoms: _942  and  _943
REMARK  378  A    between atoms: _942  and  _945
REMARK  379  A    between atoms: _945  and  _946
REMARK  380  A    between atoms: _946  and  _947
REMARK  381  A    between atoms: _947  and  _948
REMARK  382  A    between atoms: _957  and  _959
REMARK  383  A    between atoms: _959  and  _960
REMARK  384  A    between atoms: _962  and  _964
REMARK  385  A    between atoms: _964  and  _965
REMARK  386  A    between atoms: _964  and  _967
REMARK  387  A    between atoms: _967  and  _968
REMARK  388  A    between atoms: _974  and  _975
REMARK  389  A    between atoms: _980  and  _982
REMARK  390  A    between atoms: _982  and  _983
REMARK  391  A    between atoms: _982  and  _985
REMARK  392  A    between atoms: _985  and  _986
REMARK  393  A    between atoms: _996  and  _998
REMARK  394  A    between atoms: _998  and  _999
REMARK  395  A    between atoms: _998  and  _1001
REMARK  396  A    between atoms: _1001  and  _1002
REMARK  397  A    between atoms: _1002  and  _1003
REMARK  398  A    between atoms: _1003  and  _1004
REMARK  399  A    between atoms: _1013  and  _1015
REMARK  400  A    between atoms: _1015  and  _1016
REMARK  401  A    between atoms: _1015  and  _1018
REMARK  402  A    between atoms: _1018  and  _1019
REMARK  403  A    between atoms: _1021  and  _1023
REMARK  404  A    between atoms: _1023  and  _1024
REMARK  405  A    between atoms: _1027  and  _1029
REMARK  406  A    between atoms: _1029  and  _1030
REMARK  407  A    between atoms: _1029  and  _1032
REMARK  408  A    between atoms: _1032  and  _1033
REMARK  409  A    between atoms: _1036  and  _1038
REMARK  410  A    between atoms: _1038  and  _1039
REMARK  411  A    between atoms: _1038  and  _1041
REMARK  412  A    between atoms: _1041  and  _1042
REMARK  413  A    between atoms: _1042  and  _1043
REMARK  414  A    between atoms: _1043  and  _1044
REMARK  415  A    between atoms: _1053  and  _1055
REMARK  416  A    between atoms: _1055  and  _1056
REMARK  417  A    between atoms: _1055  and  _1058
REMARK  418  A    between atoms: _1061  and  _1063
REMARK  419  A    between atoms: _1063  and  _1064
REMARK  420  A    between atoms: _1066  and  _1068
REMARK  421  A    between atoms: _1068  and  _1069
REMARK  422  A    between atoms: _1068  and  _1071
REMARK  423  A    between atoms: _1071  and  _1072
REMARK                            x       y       z     vdW  Elec       q    Type
REMARK                         _______ _______ _______ _____ _____    ______ ____
ROOT
ATOM      1  C   ARG A   1      31.303  49.324  43.936  0.00  0.00    +0.238 C 
ATOM      2  N   TYR A   2      30.305  48.580  43.467  0.00  0.00    -0.298 N 
ATOM      3  H   TYR A   2      29.481  48.369  44.066  0.00  0.00    +0.150 HD
ATOM      4  O   ARG A   1      32.283  49.612  43.245  0.00  0.00    -0.274 OA
ENDROOT
BRANCH   1   5
ATOM      5  CA  ARG A   1      31.219  49.856  45.347  0.00  0.00    +0.145 C 
BRANCH   5   6
ATOM      6  N   ARG A   1      29.914  50.430  45.618  0.00  0.00    -0.238 NA
ATOM      7  H   ARG A   1      29.363  50.067  46.422  0.00  0.00    +0.142 HD
ENDBRANCH   5   6
BRANCH   5   8
ATOM      8  CB  ARG A   1      31.494  48.740  46.351  0.00  0.00    +0.030 C 
BRANCH   8   9
ATOM      9  CG  ARG A   1      32.877  48.144  46.292  0.00  0.00    +0.045 C 
BRANCH   9  10
ATOM     10  CD  ARG A   1      32.792  46.624  46.409  0.00  0.00    +0.174 C 
BRANCH  10  11
ATOM     11  NE  ARG A   1      34.108  46.049  46.153  0.00  0.00    -0.265 N 
ATOM     12  CZ  ARG A   1      35.057  46.012  47.087  0.00  0.00    +0.342 C 
ATOM     13  NH2 ARG A   1      34.764  46.479  48.292  0.00  0.00    -0.292 N 
ATOM     14 HH21 ARG A   1      35.482  46.465  49.044  0.00  0.00    +0.255 HD
ATOM     15 HH22 ARG A   1      33.816  46.860  48.486  0.00  0.00    +0.255 HD
ATOM     16  NH1 ARG A   1      36.239  45.496  46.784  0.00  0.00    -0.292 N 
ATOM     17 HH11 ARG A   1      36.990  45.460  47.502  0.00  0.00    +0.255 HD
ATOM     18 HH12 ARG A   1      36.416  45.127  45.828  0.00  0.00    +0.255 HD
ATOM     19  HE  ARG A   1      34.312  45.656  45.212  0.00  0.00    +0.259 HD
ENDBRANCH  10  11
ENDBRANCH   9  10
ENDBRANCH   8   9
ENDBRANCH   5   8
ENDBRANCH   1   5
BRANCH   2  20
ATOM     20  CA  TYR A   2      30.377  48.062  42.103  0.00  0.00    +0.141 C 
BRANCH  20  21
ATOM     21  C   TYR A   2      30.491  49.212  41.110  0.00  0.00    +0.227 C 
ATOM     22  O   TYR A   2      31.243  49.153  40.135  0.00  0.00    -0.286 OA
ENDBRANCH  20  21
BRANCH  20  23
ATOM     23  CB  TYR A   2      29.259  47.104  41.751  0.00  0.00    +0.054 C 
BRANCH  23  24
ATOM     24  CG  TYR A   2      29.155  45.826  42.554  0.00  0.00    -0.020 A 
ATOM     25  CD2 TYR A   2      27.919  45.339  42.978  0.00  0.00    -0.001 A 
ATOM     26  CE2 TYR A   2      27.838  44.182  43.722  0.00  0.00    +0.036 A 
ATOM     27  CZ  TYR A   2      28.965  43.474  44.060  0.00  0.00    +0.134 A 
ATOM     28  CE1 TYR A   2      30.189  43.922  43.640  0.00  0.00    +0.036 A 
ATOM     29  CD1 TYR A   2      30.280  45.076  42.892  0.00  0.00    -0.001 A 
BRANCH  27  30
ATOM     30  OH  TYR A   2      28.865  42.330  44.808  0.00  0.00    -0.506 OA
ATOM     31  HH  TYR A   2      29.769  41.954  44.956  0.00  0.00    +0.292 HD
ENDBRANCH  27  30
ENDBRANCH  23  24
ENDBRANCH  20  23
ENDBRANCH   2  20
TORSDOF 11
REMARK  Name = ../refined-set-2016/1fo0/1fo0_pocket.pdb
REMARK  423 active torsions:
REMARK  status: ('A' for Active; 'I' for Inactive)
REMARK    1  A    between atoms: _1  and  _3
REMARK    2  A    between atoms: _3  and  _4
REMARK    3  A    between atoms: _3  and  _6
REMARK    4  A    between atoms: _6  and  _7
REMARK    5  A    between atoms: _10  and  _12
REMARK    6  A    between atoms: _12  and  _13
REMARK    7  A    between atoms: _12  and  _15
REMARK    8  A    between atoms: _15  and  _16
REMARK    9  A    between atoms: _16  and  _17
REMARK   10  A    between atoms: _17  and  _18
REMARK   11  A    between atoms: _27  and  _29
REMARK   12  A    between atoms: _29  and  _30
REMARK   13  A    between atoms: _29  and  _32
REMARK   14  A    between atoms: _32  and  _33
REMARK   15  A    between atoms: _38  and  _39
REMARK   16  A    between atoms: _41  and  _43
REMARK   17  A    between atoms: _43  and  _44
REMARK   18  A    between atoms: _43  and  _46
REMARK   19  A    between atoms: _46  and  _47
REMARK   20  A    between atoms: _53  and  _55
REMARK   21  A    between atoms: _55  and  _56
REMARK   22  A    between atoms: _55  and  _58
REMARK   23  A    between atoms: _61  and  _63
REMARK   24  A    between atoms: _63  and  _64
REMARK   25  A    between atoms: _63  and  _66
REMARK   26  A    between atoms: _66  and  _67
REMARK   27  A    between atoms: _70  and  _72
REMARK   28  A    between atoms: _72  and  _73
REMARK   29  A    between atoms: _72  and  _75
REMARK   30  A    between atoms: _75  and  _76
REMARK   31  A    between atoms: _81  and  _82
REMARK   32  A    between atoms: _84  and  _86
REMARK   33  A    between atoms: _86  and  _87
REMARK   34  A    between atoms: _86  and  _89
REMARK   35  A    between atoms: _89  and  _90
REMARK   36  A    between atoms: _90  and  _91
REMARK   37  A    between atoms: _93  and  _95
REMARK   38  A    between atoms: _95  and  _96
REMARK   39  A    between atoms: _95  and  _98
REMARK   40  A    between atoms: _98  and  _99
REMARK   41  A    between atoms: _99  and  _100
REMARK   42  A    between atoms: _103  and  _105
REMARK   43  A    between atoms: _105  and  _106
REMARK   44  A    between atoms: _105  and  _108
REMARK   45  A    between atoms: _111  and  _113
REMARK   46  A    between atoms: _113  and  _114
REMARK   47  A    between atoms: _116  and  _118
REMARK   48  A    between atoms: _118  and  _119
REMARK   49  A    between atoms: _118  and  _121
REMARK   50  A    between atoms: _121  and  _122
REMARK   51  A    between atoms: _128  and  _130
REMARK   52  A    between atoms: _130  and  _131
REMARK   53  A    between atoms: _130  and  _133
REMARK   54  A    between atoms: _136  and  _138
REMARK   55  A    between atoms: _138  and  _139
REMARK   56  A    between atoms: _138  and  _141
REMARK   57  A    between atoms: _141  and  _142
REMARK   58  A    between atoms: _148  and  _150
REMARK   59  A    between atoms: _150  and  _151
REMARK   60  A    between atoms: _150  and  _153
REMARK   61  A    between atoms: _153  and  _154
REMARK   62  A    between atoms: _159  and  _160
REMARK   63  A    between atoms: _162  and  _164
REMARK   64  A    between atoms: _164  and  _165
REMARK   65  A    between atoms: _164  and  _167
REMARK   66  A    between atoms: _167  and  _168
REMARK   67  A    between atoms: _168  and  _169
REMARK   68  A    between atoms: _171  and  _173
REMARK   69  A    between atoms: _173  and  _174
REMARK   70  A    between atoms: _173  and  _176
REMARK   71  A    between atoms: _176  and  _177
REMARK   72  A    between atoms: _177  and  _178
REMARK   73  A    between atoms: _181  and  _183
REMARK   74  A    between atoms: _183  and  _184
REMARK   75  A    between atoms: _183  and  _186
REMARK   76  A    between atoms: _186  and  _187
REMARK   77  A    between atoms: _192  and  _193
REMARK   78  A    between atoms: _195  and  _197
REMARK   79  A    between atoms: _197  and  _198
REMARK   80  A    between atoms: _197  and  _200
REMARK   81  A    between atoms: _200  and  _201
REMARK   82  A    between atoms: _201  and  _202
REMARK   83  A    between atoms: _202  and  _203
REMARK   84  A    between atoms: _212  and  _214
REMARK   85  A    between atoms: _214  and  _215
REMARK   86  A    between atoms: _214  and  _217
REMARK   87  A    between atoms: _217  and  _218
REMARK   88  A    between atoms: _218  and  _219
REMARK   89  A    between atoms: _222  and  _224
REMARK   90  A    between atoms: _224  and  _225
REMARK   91  A    between atoms: _224  and  _227
REMARK   92  A    between atoms: _227  and  _228
REMARK   93  A    between atoms: _228  and  _229
REMARK   94  A    between atoms: _234  and  _236
REMARK   95  A    between atoms: _236  and  _237
REMARK   96  A    between atoms: _236  and  _239
REMARK   97  A    between atoms: _239  and  _240
REMARK   98  A    between atoms: _240  and  _241
REMARK   99  A    between atoms: _241  and  _242
REMARK  100  A    between atoms: _242  and  _243
REMARK  101  A    between atoms: _247  and  _249
REMARK  102  A    between atoms: _249  and  _250
REMARK  103  A    between atoms: _253  and  _255
REMARK  104  A    between atoms: _255  and  _256
REMARK  105  A    between atoms: _255  and  _258
REMARK  106  A    between atoms: _258  and  _259
REMARK  107  A    between atoms: _259  and  _260
REMARK  108  A    between atoms: _260  and  _261
REMARK  109  A    between atoms: _261  and  _262
REMARK  110  A    between atoms: _266  and  _268
REMARK  111  A    between atoms: _268  and  _269
REMARK  112  A    between atoms: _271  and  _273
REMARK  113  A    between atoms: _273  and  _274
REMARK  114  A    between atoms: _273  and  _276
REMARK  115  A    between atoms: _276  and  _277
REMARK  116  A    between atoms: _282  and  _284
REMARK  117  A    between atoms: _284  and  _285
REMARK  118  A    between atoms: _284  and  _287
REMARK  119  A    between atoms: _287  and  _288
REMARK  120  A    between atoms: _288  and  _289
REMARK  121  A    between atoms: _292  and  _294
REMARK  122  A    between atoms: _294  and  _295
REMARK  123  A    between atoms: _294  and  _297
REMARK  124  A    between atoms: _297  and  _298
REMARK  125  A    between atoms: _298  and  _299
REMARK  126  A    between atoms: _304  and  _306
REMARK  127  A    between atoms: _306  and  _307
REMARK  128  A    between atoms: _306  and  _309
REMARK  129  A    between atoms: _309  and  _310
REMARK  130  A    between atoms: _312  and  _314
REMARK  131  A    between atoms: _314  and  _315
REMARK  132  A    between atoms: _314  and  _317
REMARK  133  A    between atoms: _317  and  _318
REMARK  134  A    between atoms: _324  and  _326
REMARK  135  A    between atoms: _326  and  _327
REMARK  136  A    between atoms: _326  and  _329
REMARK  137  A    between atoms: _329  and  _330
REMARK  138  A    between atoms: _330  and  _331
REMARK  139  A    between atoms: _331  and  _332
REMARK  140  A    between atoms: _341  and  _343
REMARK  141  A    between atoms: _343  and  _344
REMARK  142  A    between atoms: _343  and  _346
REMARK  143  A    between atoms: _349  and  _351
REMARK  144  A    between atoms: _351  and  _352
REMARK  145  A    between atoms: _351  and  _354
REMARK  146  A    between atoms: _354  and  _355
REMARK  147  A    between atoms: _358  and  _360
REMARK  148  A    between atoms: _360  and  _361
REMARK  149  A    between atoms: _360  and  _363
REMARK  150  A    between atoms: _363  and  _364
REMARK  151  A    between atoms: _367  and  _369
REMARK  152  A    between atoms: _369  and  _370
REMARK  153  A    between atoms: _369  and  _372
REMARK  154  A    between atoms: _372  and  _373
REMARK  155  A    between atoms: _373  and  _374
REMARK  156  A    between atoms: _374  and  _375
REMARK  157  A    between atoms: _384  and  _386
REMARK  158  A    between atoms: _386  and  _387
REMARK  159  A    between atoms: _386  and  _389
REMARK  160  A    between atoms: _389  and  _390
REMARK  161  A    between atoms: _393  and  _395
REMARK  162  A    between atoms: _395  and  _396
REMARK  163  A    between atoms: _395  and  _398
REMARK  164  A    between atoms: _398  and  _399
REMARK  165  A    between atoms: _402  and  _404
REMARK  166  A    between atoms: _404  and  _405
REMARK  167  A    between atoms: _404  and  _407
REMARK  168  A    between atoms: _407  and  _408
REMARK  169  A    between atoms: _411  and  _413
REMARK  170  A    between atoms: _413  and  _414
REMARK  171  A    between atoms: _413  and  _416
REMARK  172  A    between atoms: _416  and  _417
REMARK  173  A    between atoms: _422  and  _423
REMARK  174  A    between atoms: _425  and  _427
REMARK  175  A    between atoms: _427  and  _428
REMARK  176  A    between atoms: _427  and  _430
REMARK  177  A    between atoms: _430  and  _431
REMARK  178  A    between atoms: _436  and  _437
REMARK  179  A    between atoms: _439  and  _441
REMARK  180  A    between atoms: _441  and  _442
REMARK  181  A    between atoms: _441  and  _444
REMARK  182  A    between atoms: _444  and  _445
REMARK  183  A    between atoms: _448  and  _450
REMARK  184  A    between atoms: _450  and  _451
REMARK  185  A    between atoms: _450  and  _453
REMARK  186  A    between atoms: _456  and  _458
REMARK  187  A    between atoms: _458  and  _459
REMARK  188  A    between atoms: _458  and  _461
REMARK  189  A    between atoms: _461  and  _462
REMARK  190  A    between atoms: _465  and  _467
REMARK  191  A    between atoms: _467  and  _468
REMARK  192  A    between atoms: _467  and  _470
REMARK  193  A    between atoms: _470  and  _471
REMARK  194  A    between atoms: _473  and  _475
REMARK  195  A    between atoms: _475  and  _476
REMARK  196  A    between atoms: _478  and  _480
REMARK  197  A    between atoms: _480  and  _481
REMARK  198  A    between atoms: _480  and  _483
REMARK  199  A    between atoms: _483  and  _484
REMARK  200  A    between atoms: _489  and  _490
REMARK  201  A    between atoms: _492  and  _494
REMARK  202  A    between atoms: _494  and  _495
REMARK  203  A    between atoms: _494  and  _497
REMARK  204  A    between atoms: _497  and  _498
REMARK  205  A    between atoms: _498  and  _499
REMARK  206  A    between atoms: _504  and  _506
REMARK  207  A    between atoms: _506  and  _507
REMARK  208  A    between atoms: _506  and  _509
REMARK  209  A    between atoms: _509  and  _510
REMARK  210  A    between atoms: _510  and  _511
REMARK  211  A    between atoms: _516  and  _518
REMARK  212  A    between atoms: _518  and  _519
REMARK  213  A    between atoms: _518  and  _521
REMARK  214  A    between atoms: _521  and  _522
REMARK  215  A    between atoms: _527  and  _528
REMARK  216  A    between atoms: _530  and  _532
REMARK  217  A    between atoms: _532  and  _533
REMARK  218  A    between atoms: _532  and  _535
REMARK  219  A    between atoms: _535  and  _536
REMARK  220  A    between atoms: _541  and  _542
REMARK  221  A    between atoms: _544  and  _546
REMARK  222  A    between atoms: _546  and  _547
REMARK  223  A    between atoms: _546  and  _549
REMARK  224  A    between atoms: _549  and  _550
REMARK  225  A    between atoms: _555  and  _556
REMARK  226  A    between atoms: _558  and  _560
REMARK  227  A    between atoms: _560  and  _561
REMARK  228  A    between atoms: _560  and  _563
REMARK  229  A    between atoms: _563  and  _564
REMARK  230  A    between atoms: _567  and  _569
REMARK  231  A    between atoms: _569  and  _570
REMARK  232  A    between atoms: _569  and  _572
REMARK  233  A    between atoms: _572  and  _573
REMARK  234  A    between atoms: _583  and  _585
REMARK  235  A    between atoms: _585  and  _586
REMARK  236  A    between atoms: _589  and  _591
REMARK  237  A    between atoms: _591  and  _592
REMARK  238  A    between atoms: _595  and  _597
REMARK  239  A    between atoms: _597  and  _598
REMARK  240  A    between atoms: _597  and  _600
REMARK  241  A    between atoms: _600  and  _601
REMARK  242  A    between atoms: _604  and  _606
REMARK  243  A    between atoms: _606  and  _607
REMARK  244  A    between atoms: _606  and  _609
REMARK  245  A    between atoms: _609  and  _610
REMARK  246  A    between atoms: _613  and  _615
REMARK  247  A    between atoms: _615  and  _616
REMARK  248  A    between atoms: _615  and  _618
REMARK  249  A    between atoms: _618  and  _619
REMARK  250  A    between atoms: _622  and  _624
REMARK  251  A    between atoms: _624  and  _625
REMARK  252  A    between atoms: _624  and  _627
REMARK  253  A    between atoms: _627  and  _628
REMARK  254  A    between atoms: _628  and  _629
REMARK  255  A    between atoms: _629  and  _630
REMARK  256  A    between atoms: _630  and  _631
REMARK  257  A    between atoms: _635  and  _637
REMARK  258  A    between atoms: _637  and  _638
REMARK  259  A    between atoms: _637  and  _640
REMARK  260  A    between atoms: _640  and  _641
REMARK  261  A    between atoms: _646  and  _648
REMARK  262  A    between atoms: _648  and  _649
REMARK  263  A    between atoms: _648  and  _651
REMARK  264  A    between atoms: _651  and  _652
REMARK  265  A    between atoms: _652  and  _653
REMARK  266  A    between atoms: _653  and  _654
REMARK  267  A    between atoms: _654  and  _655
REMARK  268  A    between atoms: _659  and  _661
REMARK  269  A    between atoms: _661  and  _662
REMARK  270  A    between atoms: _661  and  _664
REMARK  271  A    between atoms: _664  and  _665
REMARK  272  A    between atoms: _675  and  _677
REMARK  273  A    between atoms: _677  and  _678
REMARK  274  A    between atoms: _681  and  _683
REMARK  275  A    between atoms: _683  and  _684
REMARK  276  A    between atoms: _686  and  _688
REMARK  277  A    between atoms: _688  and  _689
REMARK  278  A    between atoms: _688  and  _691
REMARK  279  A    between atoms: _691  and  _692
REMARK  280  A    between atoms: _692  and  _693
REMARK  281  A    between atoms: _696  and  _698
REMARK  282  A    between atoms: _698  and  _699
REMARK  283  A    between atoms: _702  and  _704
REMARK  284  A    between atoms: _704  and  _705
REMARK  285  A    between atoms: _704  and  _707
REMARK  286  A    between atoms: _707  and  _708
REMARK  287  A    between atoms: _708  and  _709
REMARK  288  A    between atoms: _712  and  _714
REMARK  289  A    between atoms: _714  and  _715
REMARK  290  A    between atoms: _714  and  _717
REMARK  291  A    between atoms: _717  and  _718
REMARK  292  A    between atoms: _718  and  _719
REMARK  293  A    between atoms: _719  and  _720
REMARK  294  A    between atoms: _729  and  _731
REMARK  295  A    between atoms: _731  and  _732
REMARK  296  A    between atoms: _731  and  _734
REMARK  297  A    between atoms: _734  and  _735
REMARK  298  A    between atoms: _738  and  _740
REMARK  299  A    between atoms: _740  and  _741
REMARK  300  A    between atoms: _740  and  _743
REMARK  301  A    between atoms: _743  and  _744
REMARK  302  A    between atoms: _744  and  _745
REMARK  303  A    between atoms: _745  and  _746
REMARK  304  A    between atoms: _755  and  _757
REMARK  305  A    between atoms: _757  and  _758
REMARK  306  A    between atoms: _761  and  _763
REMARK  307  A    between atoms: _763  and  _764
REMARK  308  A    between atoms: _763  and  _766
REMARK  309  A    between atoms: _766  and  _767
REMARK  310  A    between atoms: _772  and  _773
REMARK  311  A    between atoms: _775  and  _777
REMARK  312  A    between atoms: _777  and  _778
REMARK  313  A    between atoms: _777  and  _780
REMARK  314  A    between atoms: _780  and  _781
REMARK  315  A    between atoms: _784  and  _786
REMARK  316  A    between atoms: _786  and  _787
REMARK  317  A    between atoms: _786  and  _789
REMARK  318  A    between atoms: _789  and  _790
REMARK  319  A    between atoms: _793  and  _795
REMARK  320  A    between atoms: _795  and  _796
REMARK  321  A    between atoms: _795  and  _798
REMARK  322  A    between atoms: _800  and  _802
REMARK  323  A    between atoms: _802  and  _803
REMARK  324  A    between atoms: _802  and  _805
REMARK  325  A    between atoms: _808  and  _810
REMARK  326  A    between atoms: _810  and  _811
REMARK  327  A    between atoms: _810  and  _813
REMARK  328  A    between atoms: _813  and  _814
REMARK  329  A    between atoms: _814  and  _815
REMARK  330  A    between atoms: _818  and  _820
REMARK  331  A    between atoms: _820  and  _821
REMARK  332  A    between atoms: _820  and  _823
REMARK  333  A    between atoms: _823  and  _824
REMARK  334  A    between atoms: _834  and  _836
REMARK  335  A    between atoms: _836  and  _837
REMARK  336  A    between atoms: _836  and  _839
REMARK  337  A    between atoms: _839  and  _840
REMARK  338  A    between atoms: _843  and  _845
REMARK  339  A    between atoms: _845  and  _846
REMARK  340  A    between atoms: _845  and  _848
REMARK  341  A    between atoms: _848  and  _849
REMARK  342  A    between atoms: _849  and  _850
REMARK  343  A    between atoms: _850  and  _851
REMARK  344  A    between atoms: _860  and  _862
REMARK  345  A    between atoms: _862  and  _863
REMARK  346  A    between atoms: _862  and  _865
REMARK  347  A    between atoms: _865  and  _866
REMARK  348  A    between atoms: _871  and  _872
REMARK  349  A    between atoms: _874  and  _876
REMARK  350  A    between atoms: _876  and  _877
REMARK  351  A    between atoms: _876  and  _879
REMARK  352  A    between atoms: _879  and  _880
REMARK  353  A    between atoms: _880  and  _881
REMARK  354  A    between atoms: _886  and  _888
REMARK  355  A    between atoms: _888  and  _889
REMARK  356  A    between atoms: _888  and  _891
REMARK  357  A    between atoms: _891  and  _892
REMARK  358  A    between atoms: _895  and  _897
REMARK  359  A    between atoms: _897  and  _898
REMARK  360  A    between atoms: _897  and  _900
REMARK  361  A    between atoms: _900  and  _901
REMARK  362  A    between atoms: _903  and  _905
REMARK  363  A    between atoms: _905  and  _906
REMARK  364  A    between atoms: _905  and  _908
REMARK  365  A    between atoms: _908  and  _909
REMARK  366  A    between atoms: _911  and  _913
REMARK  367  A    between atoms: _913  and  _914
REMARK  368  A    between atoms: _913  and  _916
REMARK  369  A    between atoms: _916  and  _917
REMARK  370  A    between atoms: _923  and  _925
REMARK  371  A    between atoms: _925  and  _926
REMARK  372  A    between atoms: _925  and  _928
REMARK  373  A    between atoms: _928  and  _929
REMARK  374  A    between atoms: _929  and  _930
REMARK  375  A    between atoms: _930  and  _931
REMARK  376  A    between atoms: _940  and  _942
REMARK  377  A    between atoms: _942  and  _943
REMARK  378  A    between atoms: _942  and  _945
REMARK  379  A    between atoms: _945  and  _946
REMARK  380  A    between atoms: _946  and  _947
REMARK  381  A    between atoms: _947  and  _948
REMARK  382  A    between atoms: _957  and  _959
REMARK  383  A    between atoms: _959  and  _960
REMARK  384  A    between atoms: _962  and  _964
REMARK  385  A    between atoms: _964  and  _965
REMARK  386  A    between atoms: _964  and  _967
REMARK  387  A    between atoms: _967  and  _968
REMARK  388  A    between atoms: _974  and  _975
REMARK  389  A    between atoms: _980  and  _982
REMARK  390  A    between atoms: _982  and  _983
REMARK  391  A    between atoms: _982  and  _985
REMARK  392  A    between atoms: _985  and  _986
REMARK  393  A    between atoms: _996  and  _998
REMARK  394  A    between atoms: _998  and  _999
REMARK  395  A    between atoms: _998  and  _1001
REMARK  396  A    between atoms: _1001  and  _1002
REMARK  397  A    between atoms: _1002  and  _1003
REMARK  398  A    between atoms: _1003  and  _1004
REMARK  399  A    between atoms: _1013  and  _1015
REMARK  400  A    between atoms: _1015  and  _1016
REMARK  401  A    between atoms: _1015  and  _1018
REMARK  402  A    between atoms: _1018  and  _1019
REMARK  403  A    between atoms: _1021  and  _1023
REMARK  404  A    between atoms: _1023  and  _1024
REMARK  405  A    between atoms: _1027  and  _1029
REMARK  406  A    between atoms: _1029  and  _1030
REMARK  407  A    between atoms: _1029  and  _1032
REMARK  408  A    between atoms: _1032  and  _1033
REMARK  409  A    between atoms: _1036  and  _1038
REMARK  410  A    between atoms: _1038  and  _1039
REMARK  411  A    between atoms: _1038  and  _1041
REMARK  412  A    between atoms: _1041  and  _1042
REMARK  413  A    between atoms: _1042  and  _1043
REMARK  414  A    between atoms: _1043  and  _1044
REMARK  415  A    between atoms: _1053  and  _1055
REMARK  416  A    between atoms: _1055  and  _1056
REMARK  417  A    between atoms: _1055  and  _1058
REMARK  418  A    between atoms: _1061  and  _1063
REMARK  419  A    between atoms: _1063  and  _1064
REMARK  420  A    between atoms: _1066  and  _1068
REMARK  421  A    between atoms: _1068  and  _1069
REMARK  422  A    between atoms: _1068  and  _1071
REMARK  423  A    between atoms: _1071  and  _1072
REMARK                            x       y       z     vdW  Elec       q    Type
REMARK                         _______ _______ _______ _____ _____    ______ ____
ROOT
ATOM      1  CA  ASP A   2      28.692  38.784  58.502  0.00  0.00    +0.160 C 
ENDROOT
BRANCH   1   3
ATOM      2  C   GLN A   1      31.051  39.307  58.958  0.00  0.00    +0.238 C 
ATOM      3  N   ASP A   2      29.925  38.645  59.277  0.00  0.00    -0.297 N 
ATOM      4  H   ASP A   2      29.931  38.013  60.103  0.00  0.00    +0.150 HD
ATOM      5  O   GLN A   1      31.054  40.109  58.010  0.00  0.00    -0.274 OA
BRANCH   2   6
ATOM      6  CA  GLN A   1      32.297  39.121  59.812  0.00  0.00    +0.145 C 
BRANCH   6   7
ATOM      7  N   GLN A   1      31.977  38.136  60.857  0.00  0.00    -0.238 NA
ATOM      8  H   GLN A   1      31.752  37.149  60.620  0.00  0.00    +0.142 HD
ENDBRANCH   6   7
BRANCH   6   9
ATOM      9  CB  GLN A   1      33.622  38.777  59.173  0.00  0.00    +0.036 C 
BRANCH   9  10
ATOM     10  CG  GLN A   1      33.576  37.715  58.077  0.00  0.00    +0.087 C 
BRANCH  10  11
ATOM     11  CD  GLN A   1      33.025  38.325  56.790  0.00  0.00    +0.219 C 
ATOM     12  NE2 GLN A   1      31.837  37.896  56.355  0.00  0.00    -0.329 N 
ATOM     13 HE21 GLN A   1      31.341  37.135  56.862  0.00  0.00    +0.145 HD
ATOM     14 HE22 GLN A   1      31.408  38.323  55.509  0.00  0.00    +0.145 HD
ATOM     15  OE1 GLN A   1      33.691  39.227  56.251  0.00  0.00    -0.275 OA
ENDBRANCH  10  11
ENDBRANCH   9  10
ENDBRANCH   6   9
ENDBRANCH   2   6
ENDBRANCH   1   3
BRANCH   1  16
ATOM     16  C   ASP A   2      27.972  40.104  58.751  0.00  0.00    +0.241 C 
ATOM     17  O   ASP A   2      27.999  40.568  59.890  0.00  0.00    -0.273 OA
ATOM     18  N   SER A   3      27.336  40.698  57.759  0.00  0.00    -0.295 N 
ATOM     19  H   SER A   3      27.332  40.258  56.817  0.00  0.00    +0.150 HD
BRANCH  18  20
ATOM     20  CA  SER A   3      26.639  41.963  57.965  0.00  0.00    +0.178 C 
BRANCH  20  21
ATOM     21  C   SER A   3      25.311  41.772  58.668  0.00  0.00    +0.243 C 
ATOM     22  O   SER A   3      24.864  42.655  59.411  0.00  0.00    -0.273 OA
ATOM     23  N   SER A   4      24.653  40.667  58.472  0.00  0.00    -0.296 N 
ATOM     24  H   SER A   4      25.050  39.980  57.800  0.00  0.00    +0.150 HD
BRANCH  23  25
ATOM     25  CA  SER A   4      23.394  40.324  59.131  0.00  0.00    +0.166 C 
BRANCH  25  26
ATOM     26  CB  SER A   4      23.708  39.092  59.988  0.00  0.00    +0.229 C 
ATOM     27  OG  SER A   4      24.427  38.183  59.552  0.00  0.00    -0.286 OA
ENDBRANCH  25  26
BRANCH  25  28
ATOM     28  C   SER A   4      22.260  40.075  58.161  0.00  0.00    +0.165 C 
BRANCH  28  29
ATOM     29  O   SER A   4      21.634  41.262  57.701  0.00  0.00    -0.380 OA
ATOM     30  H   SER A   4      20.905  41.027  57.073  0.00  0.00    +0.211 HD
ENDBRANCH  28  29
ENDBRANCH  25  28
ENDBRANCH  23  25
ENDBRANCH  20  21
BRANCH  20  31
ATOM     31  CB  SER A   3      26.453  42.721  56.660  0.00  0.00    +0.166 C 
BRANCH  31  32
ATOM     32  OG  SER A   3      26.099  41.808  55.625  0.00  0.00    -0.380 OA
ATOM     33  H   SER A   3      25.978  42.304  54.776  0.00  0.00    +0.211 HD
ENDBRANCH  31  32
ENDBRANCH  20  31
ENDBRANCH  18  20
ENDBRANCH   1  16
BRANCH   1  34
ATOM     34  CB  ASP A   2      27.710  37.663  58.787  0.00  0.00    +0.143 C 
BRANCH  34  35
ATOM     35  CG  ASP A   2      28.197  36.282  58.441  0.00  0.00    +0.367 C 
ATOM     36  OD2 ASP A   2      27.388  35.320  58.534  0.00  0.00    -0.246 OA
ATOM     37  OD1 ASP A   2      29.384  36.084  58.084  0.00  0.00    -0.246 OA
ENDBRANCH  34  35
ENDBRANCH   1  34
TORSDOF 17
REMARK  Name = ../refined-set-2016/1fo0/1fo0_pocket.pdb
REMARK  423 active torsions:
REMARK  status: ('A' for Active; 'I' for Inactive)
REMARK    1  A    between atoms: _1  and  _3
REMARK    2  A    between atoms: _3  and  _4
REMARK    3  A    between atoms: _3  and  _6
REMARK    4  A    between atoms: _6  and  _7
REMARK    5  A    between atoms: _10  and  _12
REMARK    6  A    between atoms: _12  and  _13
REMARK    7  A    between atoms: _12  and  _15
REMARK    8  A    between atoms: _15  and  _16
REMARK    9  A    between atoms: _16  and  _17
REMARK   10  A    between atoms: _17  and  _18
REMARK   11  A    between atoms: _27  and  _29
REMARK   12  A    between atoms: _29  and  _30
REMARK   13  A    between atoms: _29  and  _32
REMARK   14  A    between atoms: _32  and  _33
REMARK   15  A    between atoms: _38  and  _39
REMARK   16  A    between atoms: _41  and  _43
REMARK   17  A    between atoms: _43  and  _44
REMARK   18  A    between atoms: _43  and  _46
REMARK   19  A    between atoms: _46  and  _47
REMARK   20  A    between atoms: _53  and  _55
REMARK   21  A    between atoms: _55  and  _56
REMARK   22  A    between atoms: _55  and  _58
REMARK   23  A    between atoms: _61  and  _63
REMARK   24  A    between atoms: _63  and  _64
REMARK   25  A    between atoms: _63  and  _66
REMARK   26  A    between atoms: _66  and  _67
REMARK   27  A    between atoms: _70  and  _72
REMARK   28  A    between atoms: _72  and  _73
REMARK   29  A    between atoms: _72  and  _75
REMARK   30  A    between atoms: _75  and  _76
REMARK   31  A    between atoms: _81  and  _82
REMARK   32  A    between atoms: _84  and  _86
REMARK   33  A    between atoms: _86  and  _87
REMARK   34  A    between atoms: _86  and  _89
REMARK   35  A    between atoms: _89  and  _90
REMARK   36  A    between atoms: _90  and  _91
REMARK   37  A    between atoms: _93  and  _95
REMARK   38  A    between atoms: _95  and  _96
REMARK   39  A    between atoms: _95  and  _98
REMARK   40  A    between atoms: _98  and  _99
REMARK   41  A    between atoms: _99  and  _100
REMARK   42  A    between atoms: _103  and  _105
REMARK   43  A    between atoms: _105  and  _106
REMARK   44  A    between atoms: _105  and  _108
REMARK   45  A    between atoms: _111  and  _113
REMARK   46  A    between atoms: _113  and  _114
REMARK   47  A    between atoms: _116  and  _118
REMARK   48  A    between atoms: _118  and  _119
REMARK   49  A    between atoms: _118  and  _121
REMARK   50  A    between atoms: _121  and  _122
REMARK   51  A    between atoms: _128  and  _130
REMARK   52  A    between atoms: _130  and  _131
REMARK   53  A    between atoms: _130  and  _133
REMARK   54  A    between atoms: _136  and  _138
REMARK   55  A    between atoms: _138  and  _139
REMARK   56  A    between atoms: _138  and  _141
REMARK   57  A    between atoms: _141  and  _142
REMARK   58  A    between atoms: _148  and  _150
REMARK   59  A    between atoms: _150  and  _151
REMARK   60  A    between atoms: _150  and  _153
REMARK   61  A    between atoms: _153  and  _154
REMARK   62  A    between atoms: _159  and  _160
REMARK   63  A    between atoms: _162  and  _164
REMARK   64  A    between atoms: _164  and  _165
REMARK   65  A    between atoms: _164  and  _167
REMARK   66  A    between atoms: _167  and  _168
REMARK   67  A    between atoms: _168  and  _169
REMARK   68  A    between atoms: _171  and  _173
REMARK   69  A    between atoms: _173  and  _174
REMARK   70  A    between atoms: _173  and  _176
REMARK   71  A    between atoms: _176  and  _177
REMARK   72  A    between atoms: _177  and  _178
REMARK   73  A    between atoms: _181  and  _183
REMARK   74  A    between atoms: _183  and  _184
REMARK   75  A    between atoms: _183  and  _186
REMARK   76  A    between atoms: _186  and  _187
REMARK   77  A    between atoms: _192  and  _193
REMARK   78  A    between atoms: _195  and  _197
REMARK   79  A    between atoms: _197  and  _198
REMARK   80  A    between atoms: _197  and  _200
REMARK   81  A    between atoms: _200  and  _201
REMARK   82  A    between atoms: _201  and  _202
REMARK   83  A    between atoms: _202  and  _203
REMARK   84  A    between atoms: _212  and  _214
REMARK   85  A    between atoms: _214  and  _215
REMARK   86  A    between atoms: _214  and  _217
REMARK   87  A    between atoms: _217  and  _218
REMARK   88  A    between atoms: _218  and  _219
REMARK   89  A    between atoms: _222  and  _224
REMARK   90  A    between atoms: _224  and  _225
REMARK   91  A    between atoms: _224  and  _227
REMARK   92  A    between atoms: _227  and  _228
REMARK   93  A    between atoms: _228  and  _229
REMARK   94  A    between atoms: _234  and  _236
REMARK   95  A    between atoms: _236  and  _237
REMARK   96  A    between atoms: _236  and  _239
REMARK   97  A    between atoms: _239  and  _240
REMARK   98  A    between atoms: _240  and  _241
REMARK   99  A    between atoms: _241  and  _242
REMARK  100  A    between atoms: _242  and  _243
REMARK  101  A    between atoms: _247  and  _249
REMARK  102  A    between atoms: _249  and  _250
REMARK  103  A    between atoms: _253  and  _255
REMARK  104  A    between atoms: _255  and  _256
REMARK  105  A    between atoms: _255  and  _258
REMARK  106  A    between atoms: _258  and  _259
REMARK  107  A    between atoms: _259  and  _260
REMARK  108  A    between atoms: _260  and  _261
REMARK  109  A    between atoms: _261  and  _262
REMARK  110  A    between atoms: _266  and  _268
REMARK  111  A    between atoms: _268  and  _269
REMARK  112  A    between atoms: _271  and  _273
REMARK  113  A    between atoms: _273  and  _274
REMARK  114  A    between atoms: _273  and  _276
REMARK  115  A    between atoms: _276  and  _277
REMARK  116  A    between atoms: _282  and  _284
REMARK  117  A    between atoms: _284  and  _285
REMARK  118  A    between atoms: _284  and  _287
REMARK  119  A    between atoms: _287  and  _288
REMARK  120  A    between atoms: _288  and  _289
REMARK  121  A    between atoms: _292  and  _294
REMARK  122  A    between atoms: _294  and  _295
REMARK  123  A    between atoms: _294  and  _297
REMARK  124  A    between atoms: _297  and  _298
REMARK  125  A    between atoms: _298  and  _299
REMARK  126  A    between atoms: _304  and  _306
REMARK  127  A    between atoms: _306  and  _307
REMARK  128  A    between atoms: _306  and  _309
REMARK  129  A    between atoms: _309  and  _310
REMARK  130  A    between atoms: _312  and  _314
REMARK  131  A    between atoms: _314  and  _315
REMARK  132  A    between atoms: _314  and  _317
REMARK  133  A    between atoms: _317  and  _318
REMARK  134  A    between atoms: _324  and  _326
REMARK  135  A    between atoms: _326  and  _327
REMARK  136  A    between atoms: _326  and  _329
REMARK  137  A    between atoms: _329  and  _330
REMARK  138  A    between atoms: _330  and  _331
REMARK  139  A    between atoms: _331  and  _332
REMARK  140  A    between atoms: _341  and  _343
REMARK  141  A    between atoms: _343  and  _344
REMARK  142  A    between atoms: _343  and  _346
REMARK  143  A    between atoms: _349  and  _351
REMARK  144  A    between atoms: _351  and  _352
REMARK  145  A    between atoms: _351  and  _354
REMARK  146  A    between atoms: _354  and  _355
REMARK  147  A    between atoms: _358  and  _360
REMARK  148  A    between atoms: _360  and  _361
REMARK  149  A    between atoms: _360  and  _363
REMARK  150  A    between atoms: _363  and  _364
REMARK  151  A    between atoms: _367  and  _369
REMARK  152  A    between atoms: _369  and  _370
REMARK  153  A    between atoms: _369  and  _372
REMARK  154  A    between atoms: _372  and  _373
REMARK  155  A    between atoms: _373  and  _374
REMARK  156  A    between atoms: _374  and  _375
REMARK  157  A    between atoms: _384  and  _386
REMARK  158  A    between atoms: _386  and  _387
REMARK  159  A    between atoms: _386  and  _389
REMARK  160  A    between atoms: _389  and  _390
REMARK  161  A    between atoms: _393  and  _395
REMARK  162  A    between atoms: _395  and  _396
REMARK  163  A    between atoms: _395  and  _398
REMARK  164  A    between atoms: _398  and  _399
REMARK  165  A    between atoms: _402  and  _404
REMARK  166  A    between atoms: _404  and  _405
REMARK  167  A    between atoms: _404  and  _407
REMARK  168  A    between atoms: _407  and  _408
REMARK  169  A    between atoms: _411  and  _413
REMARK  170  A    between atoms: _413  and  _414
REMARK  171  A    between atoms: _413  and  _416
REMARK  172  A    between atoms: _416  and  _417
REMARK  173  A    between atoms: _422  and  _423
REMARK  174  A    between atoms: _425  and  _427
REMARK  175  A    between atoms: _427  and  _428
REMARK  176  A    between atoms: _427  and  _430
REMARK  177  A    between atoms: _430  and  _431
REMARK  178  A    between atoms: _436  and  _437
REMARK  179  A    between atoms: _439  and  _441
REMARK  180  A    between atoms: _441  and  _442
REMARK  181  A    between atoms: _441  and  _444
REMARK  182  A    between atoms: _444  and  _445
REMARK  183  A    between atoms: _448  and  _450
REMARK  184  A    between atoms: _450  and  _451
REMARK  185  A    between atoms: _450  and  _453
REMARK  186  A    between atoms: _456  and  _458
REMARK  187  A    between atoms: _458  and  _459
REMARK  188  A    between atoms: _458  and  _461
REMARK  189  A    between atoms: _461  and  _462
REMARK  190  A    between atoms: _465  and  _467
REMARK  191  A    between atoms: _467  and  _468
REMARK  192  A    between atoms: _467  and  _470
REMARK  193  A    between atoms: _470  and  _471
REMARK  194  A    between atoms: _473  and  _475
REMARK  195  A    between atoms: _475  and  _476
REMARK  196  A    between atoms: _478  and  _480
REMARK  197  A    between atoms: _480  and  _481
REMARK  198  A    between atoms: _480  and  _483
REMARK  199  A    between atoms: _483  and  _484
REMARK  200  A    between atoms: _489  and  _490
REMARK  201  A    between atoms: _492  and  _494
REMARK  202  A    between atoms: _494  and  _495
REMARK  203  A    between atoms: _494  and  _497
REMARK  204  A    between atoms: _497  and  _498
REMARK  205  A    between atoms: _498  and  _499
REMARK  206  A    between atoms: _504  and  _506
REMARK  207  A    between atoms: _506  and  _507
REMARK  208  A    between atoms: _506  and  _509
REMARK  209  A    between atoms: _509  and  _510
REMARK  210  A    between atoms: _510  and  _511
REMARK  211  A    between atoms: _516  and  _518
REMARK  212  A    between atoms: _518  and  _519
REMARK  213  A    between atoms: _518  and  _521
REMARK  214  A    between atoms: _521  and  _522
REMARK  215  A    between atoms: _527  and  _528
REMARK  216  A    between atoms: _530  and  _532
REMARK  217  A    between atoms: _532  and  _533
REMARK  218  A    between atoms: _532  and  _535
REMARK  219  A    between atoms: _535  and  _536
REMARK  220  A    between atoms: _541  and  _542
REMARK  221  A    between atoms: _544  and  _546
REMARK  222  A    between atoms: _546  and  _547
REMARK  223  A    between atoms: _546  and  _549
REMARK  224  A    between atoms: _549  and  _550
REMARK  225  A    between atoms: _555  and  _556
REMARK  226  A    between atoms: _558  and  _560
REMARK  227  A    between atoms: _560  and  _561
REMARK  228  A    between atoms: _560  and  _563
REMARK  229  A    between atoms: _563  and  _564
REMARK  230  A    between atoms: _567  and  _569
REMARK  231  A    between atoms: _569  and  _570
REMARK  232  A    between atoms: _569  and  _572
REMARK  233  A    between atoms: _572  and  _573
REMARK  234  A    between atoms: _583  and  _585
REMARK  235  A    between atoms: _585  and  _586
REMARK  236  A    between atoms: _589  and  _591
REMARK  237  A    between atoms: _591  and  _592
REMARK  238  A    between atoms: _595  and  _597
REMARK  239  A    between atoms: _597  and  _598
REMARK  240  A    between atoms: _597  and  _600
REMARK  241  A    between atoms: _600  and  _601
REMARK  242  A    between atoms: _604  and  _606
REMARK  243  A    between atoms: _606  and  _607
REMARK  244  A    between atoms: _606  and  _609
REMARK  245  A    between atoms: _609  and  _610
REMARK  246  A    between atoms: _613  and  _615
REMARK  247  A    between atoms: _615  and  _616
REMARK  248  A    between atoms: _615  and  _618
REMARK  249  A    between atoms: _618  and  _619
REMARK  250  A    between atoms: _622  and  _624
REMARK  251  A    between atoms: _624  and  _625
REMARK  252  A    between atoms: _624  and  _627
REMARK  253  A    between atoms: _627  and  _628
REMARK  254  A    between atoms: _628  and  _629
REMARK  255  A    between atoms: _629  and  _630
REMARK  256  A    between atoms: _630  and  _631
REMARK  257  A    between atoms: _635  and  _637
REMARK  258  A    between atoms: _637  and  _638
REMARK  259  A    between atoms: _637  and  _640
REMARK  260  A    between atoms: _640  and  _641
REMARK  261  A    between atoms: _646  and  _648
REMARK  262  A    between atoms: _648  and  _649
REMARK  263  A    between atoms: _648  and  _651
REMARK  264  A    between atoms: _651  and  _652
REMARK  265  A    between atoms: _652  and  _653
REMARK  266  A    between atoms: _653  and  _654
REMARK  267  A    between atoms: _654  and  _655
REMARK  268  A    between atoms: _659  and  _661
REMARK  269  A    between atoms: _661  and  _662
REMARK  270  A    between atoms: _661  and  _664
REMARK  271  A    between atoms: _664  and  _665
REMARK  272  A    between atoms: _675  and  _677
REMARK  273  A    between atoms: _677  and  _678
REMARK  274  A    between atoms: _681  and  _683
REMARK  275  A    between atoms: _683  and  _684
REMARK  276  A    between atoms: _686  and  _688
REMARK  277  A    between atoms: _688  and  _689
REMARK  278  A    between atoms: _688  and  _691
REMARK  279  A    between atoms: _691  and  _692
REMARK  280  A    between atoms: _692  and  _693
REMARK  281  A    between atoms: _696  and  _698
REMARK  282  A    between atoms: _698  and  _699
REMARK  283  A    between atoms: _702  and  _704
REMARK  284  A    between atoms: _704  and  _705
REMARK  285  A    between atoms: _704  and  _707
REMARK  286  A    between atoms: _707  and  _708
REMARK  287  A    between atoms: _708  and  _709
REMARK  288  A    between atoms: _712  and  _714
REMARK  289  A    between atoms: _714  and  _715
REMARK  290  A    between atoms: _714  and  _717
REMARK  291  A    between atoms: _717  and  _718
REMARK  292  A    between atoms: _718  and  _719
REMARK  293  A    between atoms: _719  and  _720
REMARK  294  A    between atoms: _729  and  _731
REMARK  295  A    between atoms: _731  and  _732
REMARK  296  A    between atoms: _731  and  _734
REMARK  297  A    between atoms: _734  and  _735
REMARK  298  A    between atoms: _738  and  _740
REMARK  299  A    between atoms: _740  and  _741
REMARK  300  A    between atoms: _740  and  _743
REMARK  301  A    between atoms: _743  and  _744
REMARK  302  A    between atoms: _744  and  _745
REMARK  303  A    between atoms: _745  and  _746
REMARK  304  A    between atoms: _755  and  _757
REMARK  305  A    between atoms: _757  and  _758
REMARK  306  A    between atoms: _761  and  _763
REMARK  307  A    between atoms: _763  and  _764
REMARK  308  A    between atoms: _763  and  _766
REMARK  309  A    between atoms: _766  and  _767
REMARK  310  A    between atoms: _772  and  _773
REMARK  311  A    between atoms: _775  and  _777
REMARK  312  A    between atoms: _777  and  _778
REMARK  313  A    between atoms: _777  and  _780
REMARK  314  A    between atoms: _780  and  _781
REMARK  315  A    between atoms: _784  and  _786
REMARK  316  A    between atoms: _786  and  _787
REMARK  317  A    between atoms: _786  and  _789
REMARK  318  A    between atoms: _789  and  _790
REMARK  319  A    between atoms: _793  and  _795
REMARK  320  A    between atoms: _795  and  _796
REMARK  321  A    between atoms: _795  and  _798
REMARK  322  A    between atoms: _800  and  _802
REMARK  323  A    between atoms: _802  and  _803
REMARK  324  A    between atoms: _802  and  _805
REMARK  325  A    between atoms: _808  and  _810
REMARK  326  A    between atoms: _810  and  _811
REMARK  327  A    between atoms: _810  and  _813
REMARK  328  A    between atoms: _813  and  _814
REMARK  329  A    between atoms: _814  and  _815
REMARK  330  A    between atoms: _818  and  _820
REMARK  331  A    between atoms: _820  and  _821
REMARK  332  A    between atoms: _820  and  _823
REMARK  333  A    between atoms: _823  and  _824
REMARK  334  A    between atoms: _834  and  _836
REMARK  335  A    between atoms: _836  and  _837
REMARK  336  A    between atoms: _836  and  _839
REMARK  337  A    between atoms: _839  and  _840
REMARK  338  A    between atoms: _843  and  _845
REMARK  339  A    between atoms: _845  and  _846
REMARK  340  A    between atoms: _845  and  _848
REMARK  341  A    between atoms: _848  and  _849
REMARK  342  A    between atoms: _849  and  _850
REMARK  343  A    between atoms: _850  and  _851
REMARK  344  A    between atoms: _860  and  _862
REMARK  345  A    between atoms: _862  and  _863
REMARK  346  A    between atoms: _862  and  _865
REMARK  347  A    between atoms: _865  and  _866
REMARK  348  A    between atoms: _871  and  _872
REMARK  349  A    between atoms: _874  and  _876
REMARK  350  A    between atoms: _876  and  _877
REMARK  351  A    between atoms: _876  and  _879
REMARK  352  A    between atoms: _879  and  _880
REMARK  353  A    between atoms: _880  and  _881
REMARK  354  A    between atoms: _886  and  _888
REMARK  355  A    between atoms: _888  and  _889
REMARK  356  A    between atoms: _888  and  _891
REMARK  357  A    between atoms: _891  and  _892
REMARK  358  A    between atoms: _895  and  _897
REMARK  359  A    between atoms: _897  and  _898
REMARK  360  A    between atoms: _897  and  _900
REMARK  361  A    between atoms: _900  and  _901
REMARK  362  A    between atoms: _903  and  _905
REMARK  363  A    between atoms: _905  and  _906
REMARK  364  A    between atoms: _905  and  _908
REMARK  365  A    between atoms: _908  and  _909
REMARK  366  A    between atoms: _911  and  _913
REMARK  367  A    between atoms: _913  and  _914
REMARK  368  A    between atoms: _913  and  _916
REMARK  369  A    between atoms: _916  and  _917
REMARK  370  A    between atoms: _923  and  _925
REMARK  371  A    between atoms: _925  and  _926
REMARK  372  A    between atoms: _925  and  _928
REMARK  373  A    between atoms: _928  and  _929
REMARK  374  A    between atoms: _929  and  _930
REMARK  375  A    between atoms: _930  and  _931
REMARK  376  A    between atoms: _940  and  _942
REMARK  377  A    between atoms: _942  and  _943
REMARK  378  A    between atoms: _942  and  _945
REMARK  379  A    between atoms: _945  and  _946
REMARK  380  A    between atoms: _946  and  _947
REMARK  381  A    between atoms: _947  and  _948
REMARK  382  A    between atoms: _957  and  _959
REMARK  383  A    between atoms: _959  and  _960
REMARK  384  A    between atoms: _962  and  _964
REMARK  385  A    between atoms: _964  and  _965
REMARK  386  A    between atoms: _964  and  _967
REMARK  387  A    between atoms: _967  and  _968
REMARK  388  A    between atoms: _974  and  _975
REMARK  389  A    between atoms: _980  and  _982
REMARK  390  A    between atoms: _982  and  _983
REMARK  391  A    between atoms: _982  and  _985
REMARK  392  A    between atoms: _985  and  _986
REMARK  393  A    between atoms: _996  and  _998
REMARK  394  A    between atoms: _998  and  _999
REMARK  395  A    between atoms: _998  and  _1001
REMARK  396  A    between atoms: _1001  and  _1002
REMARK  397  A    between atoms: _1002  and  _1003
REMARK  398  A    between atoms: _1003  and  _1004
REMARK  399  A    between atoms: _1013  and  _1015
REMARK  400  A    between atoms: _1015  and  _1016
REMARK  401  A    between atoms: _1015  and  _1018
REMARK  402  A    between atoms: _1018  and  _1019
REMARK  403  A    between atoms: _1021  and  _1023
REMARK  404  A    between atoms: _1023  and  _1024
REMARK  405  A    between atoms: _1027  and  _1029
REMARK  406  A    between atoms: _1029  and  _1030
REMARK  407  A    between atoms: _1029  and  _1032
REMARK  408  A    between atoms: _1032  and  _1033
REMARK  409  A    between atoms: _1036  and  _1038
REMARK  410  A    between atoms: _1038  and  _1039
REMARK  411  A    between atoms: _1038  and  _1041
REMARK  412  A    between atoms: _1041  and  _1042
REMARK  413  A    between atoms: _1042  and  _1043
REMARK  414  A    between atoms: _1043  and  _1044
REMARK  415  A    between atoms: _1053  and  _1055
REMARK  416  A    between atoms: _1055  and  _1056
REMARK  417  A    between atoms: _1055  and  _1058
REMARK  418  A    between atoms: _1061  and  _1063
REMARK  419  A    between atoms: _1063  and  _1064
REMARK  420  A    between atoms: _1066  and  _1068
REMARK  421  A    between atoms: _1068  and  _1069
REMARK  422  A    between atoms: _1068  and  _1071
REMARK  423  A    between atoms: _1071  and  _1072
REMARK                            x       y       z     vdW  Elec       q    Type
REMARK                         _______ _______ _______ _____ _____    ______ ____
ROOT
ATOM      1  CB  PHE A   1      20.731  34.949  63.916  0.00  0.00    +0.051 C 
ENDROOT
BRANCH   1   2
ATOM      2  CG  PHE A   1      20.204  35.481  62.603  0.00  0.00    -0.020 A 
ATOM      3  CD2 PHE A   1      19.126  36.347  62.581  0.00  0.00    -0.004 A 
ATOM      4  CE2 PHE A   1      18.691  36.879  61.395  0.00  0.00    -0.000 A 
ATOM      5  CZ  PHE A   1      19.346  36.596  60.205  0.00  0.00    -0.000 A 
ATOM      6  CE1 PHE A   1      20.449  35.763  60.222  0.00  0.00    -0.000 A 
ATOM      7  CD1 PHE A   1      20.881  35.226  61.415  0.00  0.00    -0.004 A 
ENDBRANCH   1   2
BRANCH   1   8
ATOM      8  CA  PHE A   1      21.544  36.103  64.624  0.00  0.00    +0.137 C 
BRANCH   8   9
ATOM      9  N   PHE A   1      22.559  36.531  63.684  0.00  0.00    -0.239 NA
ATOM     10  H   PHE A   1      23.301  35.849  63.429  0.00  0.00    +0.142 HD
ENDBRANCH   8   9
BRANCH   8  11
ATOM     11  C   PHE A   1      22.138  35.506  65.882  0.00  0.00    +0.224 C 
ATOM     12  O   PHE A   1      22.879  34.541  65.735  0.00  0.00    -0.287 OA
ENDBRANCH   8  11
ENDBRANCH   1   8
TORSDOF 4
REMARK  Name = ../refined-set-2016/1fo0/1fo0_pocket.pdb
REMARK  423 active torsions:
REMARK  status: ('A' for Active; 'I' for Inactive)
REMARK    1  A    between atoms: _1  and  _3
REMARK    2  A    between atoms: _3  and  _4
REMARK    3  A    between atoms: _3  and  _6
REMARK    4  A    between atoms: _6  and  _7
REMARK    5  A    between atoms: _10  and  _12
REMARK    6  A    between atoms: _12  and  _13
REMARK    7  A    between atoms: _12  and  _15
REMARK    8  A    between atoms: _15  and  _16
REMARK    9  A    between atoms: _16  and  _17
REMARK   10  A    between atoms: _17  and  _18
REMARK   11  A    between atoms: _27  and  _29
REMARK   12  A    between atoms: _29  and  _30
REMARK   13  A    between atoms: _29  and  _32
REMARK   14  A    between atoms: _32  and  _33
REMARK   15  A    between atoms: _38  and  _39
REMARK   16  A    between atoms: _41  and  _43
REMARK   17  A    between atoms: _43  and  _44
REMARK   18  A    between atoms: _43  and  _46
REMARK   19  A    between atoms: _46  and  _47
REMARK   20  A    between atoms: _53  and  _55
REMARK   21  A    between atoms: _55  and  _56
REMARK   22  A    between atoms: _55  and  _58
REMARK   23  A    between atoms: _61  and  _63
REMARK   24  A    between atoms: _63  and  _64
REMARK   25  A    between atoms: _63  and  _66
REMARK   26  A    between atoms: _66  and  _67
REMARK   27  A    between atoms: _70  and  _72
REMARK   28  A    between atoms: _72  and  _73
REMARK   29  A    between atoms: _72  and  _75
REMARK   30  A    between atoms: _75  and  _76
REMARK   31  A    between atoms: _81  and  _82
REMARK   32  A    between atoms: _84  and  _86
REMARK   33  A    between atoms: _86  and  _87
REMARK   34  A    between atoms: _86  and  _89
REMARK   35  A    between atoms: _89  and  _90
REMARK   36  A    between atoms: _90  and  _91
REMARK   37  A    between atoms: _93  and  _95
REMARK   38  A    between atoms: _95  and  _96
REMARK   39  A    between atoms: _95  and  _98
REMARK   40  A    between atoms: _98  and  _99
REMARK   41  A    between atoms: _99  and  _100
REMARK   42  A    between atoms: _103  and  _105
REMARK   43  A    between atoms: _105  and  _106
REMARK   44  A    between atoms: _105  and  _108
REMARK   45  A    between atoms: _111  and  _113
REMARK   46  A    between atoms: _113  and  _114
REMARK   47  A    between atoms: _116  and  _118
REMARK   48  A    between atoms: _118  and  _119
REMARK   49  A    between atoms: _118  and  _121
REMARK   50  A    between atoms: _121  and  _122
REMARK   51  A    between atoms: _128  and  _130
REMARK   52  A    between atoms: _130  and  _131
REMARK   53  A    between atoms: _130  and  _133
REMARK   54  A    between atoms: _136  and  _138
REMARK   55  A    between atoms: _138  and  _139
REMARK   56  A    between atoms: _138  and  _141
REMARK   57  A    between atoms: _141  and  _142
REMARK   58  A    between atoms: _148  and  _150
REMARK   59  A    between atoms: _150  and  _151
REMARK   60  A    between atoms: _150  and  _153
REMARK   61  A    between atoms: _153  and  _154
REMARK   62  A    between atoms: _159  and  _160
REMARK   63  A    between atoms: _162  and  _164
REMARK   64  A    between atoms: _164  and  _165
REMARK   65  A    between atoms: _164  and  _167
REMARK   66  A    between atoms: _167  and  _168
REMARK   67  A    between atoms: _168  and  _169
REMARK   68  A    between atoms: _171  and  _173
REMARK   69  A    between atoms: _173  and  _174
REMARK   70  A    between atoms: _173  and  _176
REMARK   71  A    between atoms: _176  and  _177
REMARK   72  A    between atoms: _177  and  _178
REMARK   73  A    between atoms: _181  and  _183
REMARK   74  A    between atoms: _183  and  _184
REMARK   75  A    between atoms: _183  and  _186
REMARK   76  A    between atoms: _186  and  _187
REMARK   77  A    between atoms: _192  and  _193
REMARK   78  A    between atoms: _195  and  _197
REMARK   79  A    between atoms: _197  and  _198
REMARK   80  A    between atoms: _197  and  _200
REMARK   81  A    between atoms: _200  and  _201
REMARK   82  A    between atoms: _201  and  _202
REMARK   83  A    between atoms: _202  and  _203
REMARK   84  A    between atoms: _212  and  _214
REMARK   85  A    between atoms: _214  and  _215
REMARK   86  A    between atoms: _214  and  _217
REMARK   87  A    between atoms: _217  and  _218
REMARK   88  A    between atoms: _218  and  _219
REMARK   89  A    between atoms: _222  and  _224
REMARK   90  A    between atoms: _224  and  _225
REMARK   91  A    between atoms: _224  and  _227
REMARK   92  A    between atoms: _227  and  _228
REMARK   93  A    between atoms: _228  and  _229
REMARK   94  A    between atoms: _234  and  _236
REMARK   95  A    between atoms: _236  and  _237
REMARK   96  A    between atoms: _236  and  _239
REMARK   97  A    between atoms: _239  and  _240
REMARK   98  A    between atoms: _240  and  _241
REMARK   99  A    between atoms: _241  and  _242
REMARK  100  A    between atoms: _242  and  _243
REMARK  101  A    between atoms: _247  and  _249
REMARK  102  A    between atoms: _249  and  _250
REMARK  103  A    between atoms: _253  and  _255
REMARK  104  A    between atoms: _255  and  _256
REMARK  105  A    between atoms: _255  and  _258
REMARK  106  A    between atoms: _258  and  _259
REMARK  107  A    between atoms: _259  and  _260
REMARK  108  A    between atoms: _260  and  _261
REMARK  109  A    between atoms: _261  and  _262
REMARK  110  A    between atoms: _266  and  _268
REMARK  111  A    between atoms: _268  and  _269
REMARK  112  A    between atoms: _271  and  _273
REMARK  113  A    between atoms: _273  and  _274
REMARK  114  A    between atoms: _273  and  _276
REMARK  115  A    between atoms: _276  and  _277
REMARK  116  A    between atoms: _282  and  _284
REMARK  117  A    between atoms: _284  and  _285
REMARK  118  A    between atoms: _284  and  _287
REMARK  119  A    between atoms: _287  and  _288
REMARK  120  A    between atoms: _288  and  _289
REMARK  121  A    between atoms: _292  and  _294
REMARK  122  A    between atoms: _294  and  _295
REMARK  123  A    between atoms: _294  and  _297
REMARK  124  A    between atoms: _297  and  _298
REMARK  125  A    between atoms: _298  and  _299
REMARK  126  A    between atoms: _304  and  _306
REMARK  127  A    between atoms: _306  and  _307
REMARK  128  A    between atoms: _306  and  _309
REMARK  129  A    between atoms: _309  and  _310
REMARK  130  A    between atoms: _312  and  _314
REMARK  131  A    between atoms: _314  and  _315
REMARK  132  A    between atoms: _314  and  _317
REMARK  133  A    between atoms: _317  and  _318
REMARK  134  A    between atoms: _324  and  _326
REMARK  135  A    between atoms: _326  and  _327
REMARK  136  A    between atoms: _326  and  _329
REMARK  137  A    between atoms: _329  and  _330
REMARK  138  A    between atoms: _330  and  _331
REMARK  139  A    between atoms: _331  and  _332
REMARK  140  A    between atoms: _341  and  _343
REMARK  141  A    between atoms: _343  and  _344
REMARK  142  A    between atoms: _343  and  _346
REMARK  143  A    between atoms: _349  and  _351
REMARK  144  A    between atoms: _351  and  _352
REMARK  145  A    between atoms: _351  and  _354
REMARK  146  A    between atoms: _354  and  _355
REMARK  147  A    between atoms: _358  and  _360
REMARK  148  A    between atoms: _360  and  _361
REMARK  149  A    between atoms: _360  and  _363
REMARK  150  A    between atoms: _363  and  _364
REMARK  151  A    between atoms: _367  and  _369
REMARK  152  A    between atoms: _369  and  _370
REMARK  153  A    between atoms: _369  and  _372
REMARK  154  A    between atoms: _372  and  _373
REMARK  155  A    between atoms: _373  and  _374
REMARK  156  A    between atoms: _374  and  _375
REMARK  157  A    between atoms: _384  and  _386
REMARK  158  A    between atoms: _386  and  _387
REMARK  159  A    between atoms: _386  and  _389
REMARK  160  A    between atoms: _389  and  _390
REMARK  161  A    between atoms: _393  and  _395
REMARK  162  A    between atoms: _395  and  _396
REMARK  163  A    between atoms: _395  and  _398
REMARK  164  A    between atoms: _398  and  _399
REMARK  165  A    between atoms: _402  and  _404
REMARK  166  A    between atoms: _404  and  _405
REMARK  167  A    between atoms: _404  and  _407
REMARK  168  A    between atoms: _407  and  _408
REMARK  169  A    between atoms: _411  and  _413
REMARK  170  A    between atoms: _413  and  _414
REMARK  171  A    between atoms: _413  and  _416
REMARK  172  A    between atoms: _416  and  _417
REMARK  173  A    between atoms: _422  and  _423
REMARK  174  A    between atoms: _425  and  _427
REMARK  175  A    between atoms: _427  and  _428
REMARK  176  A    between atoms: _427  and  _430
REMARK  177  A    between atoms: _430  and  _431
REMARK  178  A    between atoms: _436  and  _437
REMARK  179  A    between atoms: _439  and  _441
REMARK  180  A    between atoms: _441  and  _442
REMARK  181  A    between atoms: _441  and  _444
REMARK  182  A    between atoms: _444  and  _445
REMARK  183  A    between atoms: _448  and  _450
REMARK  184  A    between atoms: _450  and  _451
REMARK  185  A    between atoms: _450  and  _453
REMARK  186  A    between atoms: _456  and  _458
REMARK  187  A    between atoms: _458  and  _459
REMARK  188  A    between atoms: _458  and  _461
REMARK  189  A    between atoms: _461  and  _462
REMARK  190  A    between atoms: _465  and  _467
REMARK  191  A    between atoms: _467  and  _468
REMARK  192  A    between atoms: _467  and  _470
REMARK  193  A    between atoms: _470  and  _471
REMARK  194  A    between atoms: _473  and  _475
REMARK  195  A    between atoms: _475  and  _476
REMARK  196  A    between atoms: _478  and  _480
REMARK  197  A    between atoms: _480  and  _481
REMARK  198  A    between atoms: _480  and  _483
REMARK  199  A    between atoms: _483  and  _484
REMARK  200  A    between atoms: _489  and  _490
REMARK  201  A    between atoms: _492  and  _494
REMARK  202  A    between atoms: _494  and  _495
REMARK  203  A    between atoms: _494  and  _497
REMARK  204  A    between atoms: _497  and  _498
REMARK  205  A    between atoms: _498  and  _499
REMARK  206  A    between atoms: _504  and  _506
REMARK  207  A    between atoms: _506  and  _507
REMARK  208  A    between atoms: _506  and  _509
REMARK  209  A    between atoms: _509  and  _510
REMARK  210  A    between atoms: _510  and  _511
REMARK  211  A    between atoms: _516  and  _518
REMARK  212  A    between atoms: _518  and  _519
REMARK  213  A    between atoms: _518  and  _521
REMARK  214  A    between atoms: _521  and  _522
REMARK  215  A    between atoms: _527  and  _528
REMARK  216  A    between atoms: _530  and  _532
REMARK  217  A    between atoms: _532  and  _533
REMARK  218  A    between atoms: _532  and  _535
REMARK  219  A    between atoms: _535  and  _536
REMARK  220  A    between atoms: _541  and  _542
REMARK  221  A    between atoms: _544  and  _546
REMARK  222  A    between atoms: _546  and  _547
REMARK  223  A    between atoms: _546  and  _549
REMARK  224  A    between atoms: _549  and  _550
REMARK  225  A    between atoms: _555  and  _556
REMARK  226  A    between atoms: _558  and  _560
REMARK  227  A    between atoms: _560  and  _561
REMARK  228  A    between atoms: _560  and  _563
REMARK  229  A    between atoms: _563  and  _564
REMARK  230  A    between atoms: _567  and  _569
REMARK  231  A    between atoms: _569  and  _570
REMARK  232  A    between atoms: _569  and  _572
REMARK  233  A    between atoms: _572  and  _573
REMARK  234  A    between atoms: _583  and  _585
REMARK  235  A    between atoms: _585  and  _586
REMARK  236  A    between atoms: _589  and  _591
REMARK  237  A    between atoms: _591  and  _592
REMARK  238  A    between atoms: _595  and  _597
REMARK  239  A    between atoms: _597  and  _598
REMARK  240  A    between atoms: _597  and  _600
REMARK  241  A    between atoms: _600  and  _601
REMARK  242  A    between atoms: _604  and  _606
REMARK  243  A    between atoms: _606  and  _607
REMARK  244  A    between atoms: _606  and  _609
REMARK  245  A    between atoms: _609  and  _610
REMARK  246  A    between atoms: _613  and  _615
REMARK  247  A    between atoms: _615  and  _616
REMARK  248  A    between atoms: _615  and  _618
REMARK  249  A    between atoms: _618  and  _619
REMARK  250  A    between atoms: _622  and  _624
REMARK  251  A    between atoms: _624  and  _625
REMARK  252  A    between atoms: _624  and  _627
REMARK  253  A    between atoms: _627  and  _628
REMARK  254  A    between atoms: _628  and  _629
REMARK  255  A    between atoms: _629  and  _630
REMARK  256  A    between atoms: _630  and  _631
REMARK  257  A    between atoms: _635  and  _637
REMARK  258  A    between atoms: _637  and  _638
REMARK  259  A    between atoms: _637  and  _640
REMARK  260  A    between atoms: _640  and  _641
REMARK  261  A    between atoms: _646  and  _648
REMARK  262  A    between atoms: _648  and  _649
REMARK  263  A    between atoms: _648  and  _651
REMARK  264  A    between atoms: _651  and  _652
REMARK  265  A    between atoms: _652  and  _653
REMARK  266  A    between atoms: _653  and  _654
REMARK  267  A    between atoms: _654  and  _655
REMARK  268  A    between atoms: _659  and  _661
REMARK  269  A    between atoms: _661  and  _662
REMARK  270  A    between atoms: _661  and  _664
REMARK  271  A    between atoms: _664  and  _665
REMARK  272  A    between atoms: _675  and  _677
REMARK  273  A    between atoms: _677  and  _678
REMARK  274  A    between atoms: _681  and  _683
REMARK  275  A    between atoms: _683  and  _684
REMARK  276  A    between atoms: _686  and  _688
REMARK  277  A    between atoms: _688  and  _689
REMARK  278  A    between atoms: _688  and  _691
REMARK  279  A    between atoms: _691  and  _692
REMARK  280  A    between atoms: _692  and  _693
REMARK  281  A    between atoms: _696  and  _698
REMARK  282  A    between atoms: _698  and  _699
REMARK  283  A    between atoms: _702  and  _704
REMARK  284  A    between atoms: _704  and  _705
REMARK  285  A    between atoms: _704  and  _707
REMARK  286  A    between atoms: _707  and  _708
REMARK  287  A    between atoms: _708  and  _709
REMARK  288  A    between atoms: _712  and  _714
REMARK  289  A    between atoms: _714  and  _715
REMARK  290  A    between atoms: _714  and  _717
REMARK  291  A    between atoms: _717  and  _718
REMARK  292  A    between atoms: _718  and  _719
REMARK  293  A    between atoms: _719  and  _720
REMARK  294  A    between atoms: _729  and  _731
REMARK  295  A    between atoms: _731  and  _732
REMARK  296  A    between atoms: _731  and  _734
REMARK  297  A    between atoms: _734  and  _735
REMARK  298  A    between atoms: _738  and  _740
REMARK  299  A    between atoms: _740  and  _741
REMARK  300  A    between atoms: _740  and  _743
REMARK  301  A    between atoms: _743  and  _744
REMARK  302  A    between atoms: _744  and  _745
REMARK  303  A    between atoms: _745  and  _746
REMARK  304  A    between atoms: _755  and  _757
REMARK  305  A    between atoms: _757  and  _758
REMARK  306  A    between atoms: _761  and  _763
REMARK  307  A    between atoms: _763  and  _764
REMARK  308  A    between atoms: _763  and  _766
REMARK  309  A    between atoms: _766  and  _767
REMARK  310  A    between atoms: _772  and  _773
REMARK  311  A    between atoms: _775  and  _777
REMARK  312  A    between atoms: _777  and  _778
REMARK  313  A    between atoms: _777  and  _780
REMARK  314  A    between atoms: _780  and  _781
REMARK  315  A    between atoms: _784  and  _786
REMARK  316  A    between atoms: _786  and  _787
REMARK  317  A    between atoms: _786  and  _789
REMARK  318  A    between atoms: _789  and  _790
REMARK  319  A    between atoms: _793  and  _795
REMARK  320  A    between atoms: _795  and  _796
REMARK  321  A    between atoms: _795  and  _798
REMARK  322  A    between atoms: _800  and  _802
REMARK  323  A    between atoms: _802  and  _803
REMARK  324  A    between atoms: _802  and  _805
REMARK  325  A    between atoms: _808  and  _810
REMARK  326  A    between atoms: _810  and  _811
REMARK  327  A    between atoms: _810  and  _813
REMARK  328  A    between atoms: _813  and  _814
REMARK  329  A    between atoms: _814  and  _815
REMARK  330  A    between atoms: _818  and  _820
REMARK  331  A    between atoms: _820  and  _821
REMARK  332  A    between atoms: _820  and  _823
REMARK  333  A    between atoms: _823  and  _824
REMARK  334  A    between atoms: _834  and  _836
REMARK  335  A    between atoms: _836  and  _837
REMARK  336  A    between atoms: _836  and  _839
REMARK  337  A    between atoms: _839  and  _840
REMARK  338  A    between atoms: _843  and  _845
REMARK  339  A    between atoms: _845  and  _846
REMARK  340  A    between atoms: _845  and  _848
REMARK  341  A    between atoms: _848  and  _849
REMARK  342  A    between atoms: _849  and  _850
REMARK  343  A    between atoms: _850  and  _851
REMARK  344  A    between atoms: _860  and  _862
REMARK  345  A    between atoms: _862  and  _863
REMARK  346  A    between atoms: _862  and  _865
REMARK  347  A    between atoms: _865  and  _866
REMARK  348  A    between atoms: _871  and  _872
REMARK  349  A    between atoms: _874  and  _876
REMARK  350  A    between atoms: _876  and  _877
REMARK  351  A    between atoms: _876  and  _879
REMARK  352  A    between atoms: _879  and  _880
REMARK  353  A    between atoms: _880  and  _881
REMARK  354  A    between atoms: _886  and  _888
REMARK  355  A    between atoms: _888  and  _889
REMARK  356  A    between atoms: _888  and  _891
REMARK  357  A    between atoms: _891  and  _892
REMARK  358  A    between atoms: _895  and  _897
REMARK  359  A    between atoms: _897  and  _898
REMARK  360  A    between atoms: _897  and  _900
REMARK  361  A    between atoms: _900  and  _901
REMARK  362  A    between atoms: _903  and  _905
REMARK  363  A    between atoms: _905  and  _906
REMARK  364  A    between atoms: _905  and  _908
REMARK  365  A    between atoms: _908  and  _909
REMARK  366  A    between atoms: _911  and  _913
REMARK  367  A    between atoms: _913  and  _914
REMARK  368  A    between atoms: _913  and  _916
REMARK  369  A    between atoms: _916  and  _917
REMARK  370  A    between atoms: _923  and  _925
REMARK  371  A    between atoms: _925  and  _926
REMARK  372  A    between atoms: _925  and  _928
REMARK  373  A    between atoms: _928  and  _929
REMARK  374  A    between atoms: _929  and  _930
REMARK  375  A    between atoms: _930  and  _931
REMARK  376  A    between atoms: _940  and  _942
REMARK  377  A    between atoms: _942  and  _943
REMARK  378  A    between atoms: _942  and  _945
REMARK  379  A    between atoms: _945  and  _946
REMARK  380  A    between atoms: _946  and  _947
REMARK  381  A    between atoms: _947  and  _948
REMARK  382  A    between atoms: _957  and  _959
REMARK  383  A    between atoms: _959  and  _960
REMARK  384  A    between atoms: _962  and  _964
REMARK  385  A    between atoms: _964  and  _965
REMARK  386  A    between atoms: _964  and  _967
REMARK  387  A    between atoms: _967  and  _968
REMARK  388  A    between atoms: _974  and  _975
REMARK  389  A    between atoms: _980  and  _982
REMARK  390  A    between atoms: _982  and  _983
REMARK  391  A    between atoms: _982  and  _985
REMARK  392  A    between atoms: _985  and  _986
REMARK  393  A    between atoms: _996  and  _998
REMARK  394  A    between atoms: _998  and  _999
REMARK  395  A    between atoms: _998  and  _1001
REMARK  396  A    between atoms: _1001  and  _1002
REMARK  397  A    between atoms: _1002  and  _1003
REMARK  398  A    between atoms: _1003  and  _1004
REMARK  399  A    between atoms: _1013  and  _1015
REMARK  400  A    between atoms: _1015  and  _1016
REMARK  401  A    between atoms: _1015  and  _1018
REMARK  402  A    between atoms: _1018  and  _1019
REMARK  403  A    between atoms: _1021  and  _1023
REMARK  404  A    between atoms: _1023  and  _1024
REMARK  405  A    between atoms: _1027  and  _1029
REMARK  406  A    between atoms: _1029  and  _1030
REMARK  407  A    between atoms: _1029  and  _1032
REMARK  408  A    between atoms: _1032  and  _1033
REMARK  409  A    between atoms: _1036  and  _1038
REMARK  410  A    between atoms: _1038  and  _1039
REMARK  411  A    between atoms: _1038  and  _1041
REMARK  412  A    between atoms: _1041  and  _1042
REMARK  413  A    between atoms: _1042  and  _1043
REMARK  414  A    between atoms: _1043  and  _1044
REMARK  415  A    between atoms: _1053  and  _1055
REMARK  416  A    between atoms: _1055  and  _1056
REMARK  417  A    between atoms: _1055  and  _1058
REMARK  418  A    between atoms: _1061  and  _1063
REMARK  419  A    between atoms: _1063  and  _1064
REMARK  420  A    between atoms: _1066  and  _1068
REMARK  421  A    between atoms: _1068  and  _1069
REMARK  422  A    between atoms: _1068  and  _1071
REMARK  423  A    between atoms: _1071  and  _1072
REMARK                            x       y       z     vdW  Elec       q    Type
REMARK                         _______ _______ _______ _____ _____    ______ ____
ROOT
ATOM      1  NE  ARG A   1      15.653  35.323  66.215  0.00  0.00    -0.265 N 
ATOM      2  HE  ARG A   1      16.308  36.130  66.178  0.00  0.00    +0.259 HD
ATOM      3  CZ  ARG A   1      15.414  34.648  65.088  0.00  0.00    +0.342 C 
ATOM      4  NH2 ARG A   1      14.609  33.601  65.163  0.00  0.00    -0.292 N 
ATOM      5 HH21 ARG A   1      14.189  33.332  66.076  0.00  0.00    +0.255 HD
ATOM      6 HH22 ARG A   1      14.396  33.047  64.309  0.00  0.00    +0.255 HD
ATOM      7  NH1 ARG A   1      15.986  35.030  63.968  0.00  0.00    -0.292 N 
ATOM      8 HH11 ARG A   1      16.621  35.854  63.963  0.00  0.00    +0.255 HD
ATOM      9 HH12 ARG A   1      15.804  34.508  63.087  0.00  0.00    +0.255 HD
ENDROOT
BRANCH   1  10
ATOM     10  CD  ARG A   1      15.037  34.983  67.502  0.00  0.00    +0.174 C 
BRANCH  10  11
ATOM     11  CG  ARG A   1      15.538  35.950  68.574  0.00  0.00    +0.045 C 
BRANCH  11  12
ATOM     12  CB  ARG A   1      16.746  35.325  69.273  0.00  0.00    +0.029 C 
BRANCH  12  13
ATOM     13  CA  ARG A   1      17.133  36.149  70.512  0.00  0.00    +0.133 C 
BRANCH  13  14
ATOM     14  N   ARG A   1      16.135  35.893  71.549  0.00  0.00    -0.239 NA
ATOM     15  H   ARG A   1      15.216  36.379  71.514  0.00  0.00    +0.142 HD
ENDBRANCH  13  14
BRANCH  13  16
ATOM     16  C   ARG A   1      17.177  37.620  70.125  0.00  0.00    +0.224 C 
ATOM     17  O   ARG A   1      16.327  38.421  70.489  0.00  0.00    -0.287 OA
ENDBRANCH  13  16
ENDBRANCH  12  13
ENDBRANCH  11  12
ENDBRANCH  10  11
ENDBRANCH   1  10
TORSDOF 6
REMARK  Name = ../refined-set-2016/1fo0/1fo0_pocket.pdb
REMARK  423 active torsions:
REMARK  status: ('A' for Active; 'I' for Inactive)
REMARK    1  A    between atoms: _1  and  _3
REMARK    2  A    between atoms: _3  and  _4
REMARK    3  A    between atoms: _3  and  _6
REMARK    4  A    between atoms: _6  and  _7
REMARK    5  A    between atoms: _10  and  _12
REMARK    6  A    between atoms: _12  and  _13
REMARK    7  A    between atoms: _12  and  _15
REMARK    8  A    between atoms: _15  and  _16
REMARK    9  A    between atoms: _16  and  _17
REMARK   10  A    between atoms: _17  and  _18
REMARK   11  A    between atoms: _27  and  _29
REMARK   12  A    between atoms: _29  and  _30
REMARK   13  A    between atoms: _29  and  _32
REMARK   14  A    between atoms: _32  and  _33
REMARK   15  A    between atoms: _38  and  _39
REMARK   16  A    between atoms: _41  and  _43
REMARK   17  A    between atoms: _43  and  _44
REMARK   18  A    between atoms: _43  and  _46
REMARK   19  A    between atoms: _46  and  _47
REMARK   20  A    between atoms: _53  and  _55
REMARK   21  A    between atoms: _55  and  _56
REMARK   22  A    between atoms: _55  and  _58
REMARK   23  A    between atoms: _61  and  _63
REMARK   24  A    between atoms: _63  and  _64
REMARK   25  A    between atoms: _63  and  _66
REMARK   26  A    between atoms: _66  and  _67
REMARK   27  A    between atoms: _70  and  _72
REMARK   28  A    between atoms: _72  and  _73
REMARK   29  A    between atoms: _72  and  _75
REMARK   30  A    between atoms: _75  and  _76
REMARK   31  A    between atoms: _81  and  _82
REMARK   32  A    between atoms: _84  and  _86
REMARK   33  A    between atoms: _86  and  _87
REMARK   34  A    between atoms: _86  and  _89
REMARK   35  A    between atoms: _89  and  _90
REMARK   36  A    between atoms: _90  and  _91
REMARK   37  A    between atoms: _93  and  _95
REMARK   38  A    between atoms: _95  and  _96
REMARK   39  A    between atoms: _95  and  _98
REMARK   40  A    between atoms: _98  and  _99
REMARK   41  A    between atoms: _99  and  _100
REMARK   42  A    between atoms: _103  and  _105
REMARK   43  A    between atoms: _105  and  _106
REMARK   44  A    between atoms: _105  and  _108
REMARK   45  A    between atoms: _111  and  _113
REMARK   46  A    between atoms: _113  and  _114
REMARK   47  A    between atoms: _116  and  _118
REMARK   48  A    between atoms: _118  and  _119
REMARK   49  A    between atoms: _118  and  _121
REMARK   50  A    between atoms: _121  and  _122
REMARK   51  A    between atoms: _128  and  _130
REMARK   52  A    between atoms: _130  and  _131
REMARK   53  A    between atoms: _130  and  _133
REMARK   54  A    between atoms: _136  and  _138
REMARK   55  A    between atoms: _138  and  _139
REMARK   56  A    between atoms: _138  and  _141
REMARK   57  A    between atoms: _141  and  _142
REMARK   58  A    between atoms: _148  and  _150
REMARK   59  A    between atoms: _150  and  _151
REMARK   60  A    between atoms: _150  and  _153
REMARK   61  A    between atoms: _153  and  _154
REMARK   62  A    between atoms: _159  and  _160
REMARK   63  A    between atoms: _162  and  _164
REMARK   64  A    between atoms: _164  and  _165
REMARK   65  A    between atoms: _164  and  _167
REMARK   66  A    between atoms: _167  and  _168
REMARK   67  A    between atoms: _168  and  _169
REMARK   68  A    between atoms: _171  and  _173
REMARK   69  A    between atoms: _173  and  _174
REMARK   70  A    between atoms: _173  and  _176
REMARK   71  A    between atoms: _176  and  _177
REMARK   72  A    between atoms: _177  and  _178
REMARK   73  A    between atoms: _181  and  _183
REMARK   74  A    between atoms: _183  and  _184
REMARK   75  A    between atoms: _183  and  _186
REMARK   76  A    between atoms: _186  and  _187
REMARK   77  A    between atoms: _192  and  _193
REMARK   78  A    between atoms: _195  and  _197
REMARK   79  A    between atoms: _197  and  _198
REMARK   80  A    between atoms: _197  and  _200
REMARK   81  A    between atoms: _200  and  _201
REMARK   82  A    between atoms: _201  and  _202
REMARK   83  A    between atoms: _202  and  _203
REMARK   84  A    between atoms: _212  and  _214
REMARK   85  A    between atoms: _214  and  _215
REMARK   86  A    between atoms: _214  and  _217
REMARK   87  A    between atoms: _217  and  _218
REMARK   88  A    between atoms: _218  and  _219
REMARK   89  A    between atoms: _222  and  _224
REMARK   90  A    between atoms: _224  and  _225
REMARK   91  A    between atoms: _224  and  _227
REMARK   92  A    between atoms: _227  and  _228
REMARK   93  A    between atoms: _228  and  _229
REMARK   94  A    between atoms: _234  and  _236
REMARK   95  A    between atoms: _236  and  _237
REMARK   96  A    between atoms: _236  and  _239
REMARK   97  A    between atoms: _239  and  _240
REMARK   98  A    between atoms: _240  and  _241
REMARK   99  A    between atoms: _241  and  _242
REMARK  100  A    between atoms: _242  and  _243
REMARK  101  A    between atoms: _247  and  _249
REMARK  102  A    between atoms: _249  and  _250
REMARK  103  A    between atoms: _253  and  _255
REMARK  104  A    between atoms: _255  and  _256
REMARK  105  A    between atoms: _255  and  _258
REMARK  106  A    between atoms: _258  and  _259
REMARK  107  A    between atoms: _259  and  _260
REMARK  108  A    between atoms: _260  and  _261
REMARK  109  A    between atoms: _261  and  _262
REMARK  110  A    between atoms: _266  and  _268
REMARK  111  A    between atoms: _268  and  _269
REMARK  112  A    between atoms: _271  and  _273
REMARK  113  A    between atoms: _273  and  _274
REMARK  114  A    between atoms: _273  and  _276
REMARK  115  A    between atoms: _276  and  _277
REMARK  116  A    between atoms: _282  and  _284
REMARK  117  A    between atoms: _284  and  _285
REMARK  118  A    between atoms: _284  and  _287
REMARK  119  A    between atoms: _287  and  _288
REMARK  120  A    between atoms: _288  and  _289
REMARK  121  A    between atoms: _292  and  _294
REMARK  122  A    between atoms: _294  and  _295
REMARK  123  A    between atoms: _294  and  _297
REMARK  124  A    between atoms: _297  and  _298
REMARK  125  A    between atoms: _298  and  _299
REMARK  126  A    between atoms: _304  and  _306
REMARK  127  A    between atoms: _306  and  _307
REMARK  128  A    between atoms: _306  and  _309
REMARK  129  A    between atoms: _309  and  _310
REMARK  130  A    between atoms: _312  and  _314
REMARK  131  A    between atoms: _314  and  _315
REMARK  132  A    between atoms: _314  and  _317
REMARK  133  A    between atoms: _317  and  _318
REMARK  134  A    between atoms: _324  and  _326
REMARK  135  A    between atoms: _326  and  _327
REMARK  136  A    between atoms: _326  and  _329
REMARK  137  A    between atoms: _329  and  _330
REMARK  138  A    between atoms: _330  and  _331
REMARK  139  A    between atoms: _331  and  _332
REMARK  140  A    between atoms: _341  and  _343
REMARK  141  A    between atoms: _343  and  _344
REMARK  142  A    between atoms: _343  and  _346
REMARK  143  A    between atoms: _349  and  _351
REMARK  144  A    between atoms: _351  and  _352
REMARK  145  A    between atoms: _351  and  _354
REMARK  146  A    between atoms: _354  and  _355
REMARK  147  A    between atoms: _358  and  _360
REMARK  148  A    between atoms: _360  and  _361
REMARK  149  A    between atoms: _360  and  _363
REMARK  150  A    between atoms: _363  and  _364
REMARK  151  A    between atoms: _367  and  _369
REMARK  152  A    between atoms: _369  and  _370
REMARK  153  A    between atoms: _369  and  _372
REMARK  154  A    between atoms: _372  and  _373
REMARK  155  A    between atoms: _373  and  _374
REMARK  156  A    between atoms: _374  and  _375
REMARK  157  A    between atoms: _384  and  _386
REMARK  158  A    between atoms: _386  and  _387
REMARK  159  A    between atoms: _386  and  _389
REMARK  160  A    between atoms: _389  and  _390
REMARK  161  A    between atoms: _393  and  _395
REMARK  162  A    between atoms: _395  and  _396
REMARK  163  A    between atoms: _395  and  _398
REMARK  164  A    between atoms: _398  and  _399
REMARK  165  A    between atoms: _402  and  _404
REMARK  166  A    between atoms: _404  and  _405
REMARK  167  A    between atoms: _404  and  _407
REMARK  168  A    between atoms: _407  and  _408
REMARK  169  A    between atoms: _411  and  _413
REMARK  170  A    between atoms: _413  and  _414
REMARK  171  A    between atoms: _413  and  _416
REMARK  172  A    between atoms: _416  and  _417
REMARK  173  A    between atoms: _422  and  _423
REMARK  174  A    between atoms: _425  and  _427
REMARK  175  A    between atoms: _427  and  _428
REMARK  176  A    between atoms: _427  and  _430
REMARK  177  A    between atoms: _430  and  _431
REMARK  178  A    between atoms: _436  and  _437
REMARK  179  A    between atoms: _439  and  _441
REMARK  180  A    between atoms: _441  and  _442
REMARK  181  A    between atoms: _441  and  _444
REMARK  182  A    between atoms: _444  and  _445
REMARK  183  A    between atoms: _448  and  _450
REMARK  184  A    between atoms: _450  and  _451
REMARK  185  A    between atoms: _450  and  _453
REMARK  186  A    between atoms: _456  and  _458
REMARK  187  A    between atoms: _458  and  _459
REMARK  188  A    between atoms: _458  and  _461
REMARK  189  A    between atoms: _461  and  _462
REMARK  190  A    between atoms: _465  and  _467
REMARK  191  A    between atoms: _467  and  _468
REMARK  192  A    between atoms: _467  and  _470
REMARK  193  A    between atoms: _470  and  _471
REMARK  194  A    between atoms: _473  and  _475
REMARK  195  A    between atoms: _475  and  _476
REMARK  196  A    between atoms: _478  and  _480
REMARK  197  A    between atoms: _480  and  _481
REMARK  198  A    between atoms: _480  and  _483
REMARK  199  A    between atoms: _483  and  _484
REMARK  200  A    between atoms: _489  and  _490
REMARK  201  A    between atoms: _492  and  _494
REMARK  202  A    between atoms: _494  and  _495
REMARK  203  A    between atoms: _494  and  _497
REMARK  204  A    between atoms: _497  and  _498
REMARK  205  A    between atoms: _498  and  _499
REMARK  206  A    between atoms: _504  and  _506
REMARK  207  A    between atoms: _506  and  _507
REMARK  208  A    between atoms: _506  and  _509
REMARK  209  A    between atoms: _509  and  _510
REMARK  210  A    between atoms: _510  and  _511
REMARK  211  A    between atoms: _516  and  _518
REMARK  212  A    between atoms: _518  and  _519
REMARK  213  A    between atoms: _518  and  _521
REMARK  214  A    between atoms: _521  and  _522
REMARK  215  A    between atoms: _527  and  _528
REMARK  216  A    between atoms: _530  and  _532
REMARK  217  A    between atoms: _532  and  _533
REMARK  218  A    between atoms: _532  and  _535
REMARK  219  A    between atoms: _535  and  _536
REMARK  220  A    between atoms: _541  and  _542
REMARK  221  A    between atoms: _544  and  _546
REMARK  222  A    between atoms: _546  and  _547
REMARK  223  A    between atoms: _546  and  _549
REMARK  224  A    between atoms: _549  and  _550
REMARK  225  A    between atoms: _555  and  _556
REMARK  226  A    between atoms: _558  and  _560
REMARK  227  A    between atoms: _560  and  _561
REMARK  228  A    between atoms: _560  and  _563
REMARK  229  A    between atoms: _563  and  _564
REMARK  230  A    between atoms: _567  and  _569
REMARK  231  A    between atoms: _569  and  _570
REMARK  232  A    between atoms: _569  and  _572
REMARK  233  A    between atoms: _572  and  _573
REMARK  234  A    between atoms: _583  and  _585
REMARK  235  A    between atoms: _585  and  _586
REMARK  236  A    between atoms: _589  and  _591
REMARK  237  A    between atoms: _591  and  _592
REMARK  238  A    between atoms: _595  and  _597
REMARK  239  A    between atoms: _597  and  _598
REMARK  240  A    between atoms: _597  and  _600
REMARK  241  A    between atoms: _600  and  _601
REMARK  242  A    between atoms: _604  and  _606
REMARK  243  A    between atoms: _606  and  _607
REMARK  244  A    between atoms: _606  and  _609
REMARK  245  A    between atoms: _609  and  _610
REMARK  246  A    between atoms: _613  and  _615
REMARK  247  A    between atoms: _615  and  _616
REMARK  248  A    between atoms: _615  and  _618
REMARK  249  A    between atoms: _618  and  _619
REMARK  250  A    between atoms: _622  and  _624
REMARK  251  A    between atoms: _624  and  _625
REMARK  252  A    between atoms: _624  and  _627
REMARK  253  A    between atoms: _627  and  _628
REMARK  254  A    between atoms: _628  and  _629
REMARK  255  A    between atoms: _629  and  _630
REMARK  256  A    between atoms: _630  and  _631
REMARK  257  A    between atoms: _635  and  _637
REMARK  258  A    between atoms: _637  and  _638
REMARK  259  A    between atoms: _637  and  _640
REMARK  260  A    between atoms: _640  and  _641
REMARK  261  A    between atoms: _646  and  _648
REMARK  262  A    between atoms: _648  and  _649
REMARK  263  A    between atoms: _648  and  _651
REMARK  264  A    between atoms: _651  and  _652
REMARK  265  A    between atoms: _652  and  _653
REMARK  266  A    between atoms: _653  and  _654
REMARK  267  A    between atoms: _654  and  _655
REMARK  268  A    between atoms: _659  and  _661
REMARK  269  A    between atoms: _661  and  _662
REMARK  270  A    between atoms: _661  and  _664
REMARK  271  A    between atoms: _664  and  _665
REMARK  272  A    between atoms: _675  and  _677
REMARK  273  A    between atoms: _677  and  _678
REMARK  274  A    between atoms: _681  and  _683
REMARK  275  A    between atoms: _683  and  _684
REMARK  276  A    between atoms: _686  and  _688
REMARK  277  A    between atoms: _688  and  _689
REMARK  278  A    between atoms: _688  and  _691
REMARK  279  A    between atoms: _691  and  _692
REMARK  280  A    between atoms: _692  and  _693
REMARK  281  A    between atoms: _696  and  _698
REMARK  282  A    between atoms: _698  and  _699
REMARK  283  A    between atoms: _702  and  _704
REMARK  284  A    between atoms: _704  and  _705
REMARK  285  A    between atoms: _704  and  _707
REMARK  286  A    between atoms: _707  and  _708
REMARK  287  A    between atoms: _708  and  _709
REMARK  288  A    between atoms: _712  and  _714
REMARK  289  A    between atoms: _714  and  _715
REMARK  290  A    between atoms: _714  and  _717
REMARK  291  A    between atoms: _717  and  _718
REMARK  292  A    between atoms: _718  and  _719
REMARK  293  A    between atoms: _719  and  _720
REMARK  294  A    between atoms: _729  and  _731
REMARK  295  A    between atoms: _731  and  _732
REMARK  296  A    between atoms: _731  and  _734
REMARK  297  A    between atoms: _734  and  _735
REMARK  298  A    between atoms: _738  and  _740
REMARK  299  A    between atoms: _740  and  _741
REMARK  300  A    between atoms: _740  and  _743
REMARK  301  A    between atoms: _743  and  _744
REMARK  302  A    between atoms: _744  and  _745
REMARK  303  A    between atoms: _745  and  _746
REMARK  304  A    between atoms: _755  and  _757
REMARK  305  A    between atoms: _757  and  _758
REMARK  306  A    between atoms: _761  and  _763
REMARK  307  A    between atoms: _763  and  _764
REMARK  308  A    between atoms: _763  and  _766
REMARK  309  A    between atoms: _766  and  _767
REMARK  310  A    between atoms: _772  and  _773
REMARK  311  A    between atoms: _775  and  _777
REMARK  312  A    between atoms: _777  and  _778
REMARK  313  A    between atoms: _777  and  _780
REMARK  314  A    between atoms: _780  and  _781
REMARK  315  A    between atoms: _784  and  _786
REMARK  316  A    between atoms: _786  and  _787
REMARK  317  A    between atoms: _786  and  _789
REMARK  318  A    between atoms: _789  and  _790
REMARK  319  A    between atoms: _793  and  _795
REMARK  320  A    between atoms: _795  and  _796
REMARK  321  A    between atoms: _795  and  _798
REMARK  322  A    between atoms: _800  and  _802
REMARK  323  A    between atoms: _802  and  _803
REMARK  324  A    between atoms: _802  and  _805
REMARK  325  A    between atoms: _808  and  _810
REMARK  326  A    between atoms: _810  and  _811
REMARK  327  A    between atoms: _810  and  _813
REMARK  328  A    between atoms: _813  and  _814
REMARK  329  A    between atoms: _814  and  _815
REMARK  330  A    between atoms: _818  and  _820
REMARK  331  A    between atoms: _820  and  _821
REMARK  332  A    between atoms: _820  and  _823
REMARK  333  A    between atoms: _823  and  _824
REMARK  334  A    between atoms: _834  and  _836
REMARK  335  A    between atoms: _836  and  _837
REMARK  336  A    between atoms: _836  and  _839
REMARK  337  A    between atoms: _839  and  _840
REMARK  338  A    between atoms: _843  and  _845
REMARK  339  A    between atoms: _845  and  _846
REMARK  340  A    between atoms: _845  and  _848
REMARK  341  A    between atoms: _848  and  _849
REMARK  342  A    between atoms: _849  and  _850
REMARK  343  A    between atoms: _850  and  _851
REMARK  344  A    between atoms: _860  and  _862
REMARK  345  A    between atoms: _862  and  _863
REMARK  346  A    between atoms: _862  and  _865
REMARK  347  A    between atoms: _865  and  _866
REMARK  348  A    between atoms: _871  and  _872
REMARK  349  A    between atoms: _874  and  _876
REMARK  350  A    between atoms: _876  and  _877
REMARK  351  A    between atoms: _876  and  _879
REMARK  352  A    between atoms: _879  and  _880
REMARK  353  A    between atoms: _880  and  _881
REMARK  354  A    between atoms: _886  and  _888
REMARK  355  A    between atoms: _888  and  _889
REMARK  356  A    between atoms: _888  and  _891
REMARK  357  A    between atoms: _891  and  _892
REMARK  358  A    between atoms: _895  and  _897
REMARK  359  A    between atoms: _897  and  _898
REMARK  360  A    between atoms: _897  and  _900
REMARK  361  A    between atoms: _900  and  _901
REMARK  362  A    between atoms: _903  and  _905
REMARK  363  A    between atoms: _905  and  _906
REMARK  364  A    between atoms: _905  and  _908
REMARK  365  A    between atoms: _908  and  _909
REMARK  366  A    between atoms: _911  and  _913
REMARK  367  A    between atoms: _913  and  _914
REMARK  368  A    between atoms: _913  and  _916
REMARK  369  A    between atoms: _916  and  _917
REMARK  370  A    between atoms: _923  and  _925
REMARK  371  A    between atoms: _925  and  _926
REMARK  372  A    between atoms: _925  and  _928
REMARK  373  A    between atoms: _928  and  _929
REMARK  374  A    between atoms: _929  and  _930
REMARK  375  A    between atoms: _930  and  _931
REMARK  376  A    between atoms: _940  and  _942
REMARK  377  A    between atoms: _942  and  _943
REMARK  378  A    between atoms: _942  and  _945
REMARK  379  A    between atoms: _945  and  _946
REMARK  380  A    between atoms: _946  and  _947
REMARK  381  A    between atoms: _947  and  _948
REMARK  382  A    between atoms: _957  and  _959
REMARK  383  A    between atoms: _959  and  _960
REMARK  384  A    between atoms: _962  and  _964
REMARK  385  A    between atoms: _964  and  _965
REMARK  386  A    between atoms: _964  and  _967
REMARK  387  A    between atoms: _967  and  _968
REMARK  388  A    between atoms: _974  and  _975
REMARK  389  A    between atoms: _980  and  _982
REMARK  390  A    between atoms: _982  and  _983
REMARK  391  A    between atoms: _982  and  _985
REMARK  392  A    between atoms: _985  and  _986
REMARK  393  A    between atoms: _996  and  _998
REMARK  394  A    between atoms: _998  and  _999
REMARK  395  A    between atoms: _998  and  _1001
REMARK  396  A    between atoms: _1001  and  _1002
REMARK  397  A    between atoms: _1002  and  _1003
REMARK  398  A    between atoms: _1003  and  _1004
REMARK  399  A    between atoms: _1013  and  _1015
REMARK  400  A    between atoms: _1015  and  _1016
REMARK  401  A    between atoms: _1015  and  _1018
REMARK  402  A    between atoms: _1018  and  _1019
REMARK  403  A    between atoms: _1021  and  _1023
REMARK  404  A    between atoms: _1023  and  _1024
REMARK  405  A    between atoms: _1027  and  _1029
REMARK  406  A    between atoms: _1029  and  _1030
REMARK  407  A    between atoms: _1029  and  _1032
REMARK  408  A    between atoms: _1032  and  _1033
REMARK  409  A    between atoms: _1036  and  _1038
REMARK  410  A    between atoms: _1038  and  _1039
REMARK  411  A    between atoms: _1038  and  _1041
REMARK  412  A    between atoms: _1041  and  _1042
REMARK  413  A    between atoms: _1042  and  _1043
REMARK  414  A    between atoms: _1043  and  _1044
REMARK  415  A    between atoms: _1053  and  _1055
REMARK  416  A    between atoms: _1055  and  _1056
REMARK  417  A    between atoms: _1055  and  _1058
REMARK  418  A    between atoms: _1061  and  _1063
REMARK  419  A    between atoms: _1063  and  _1064
REMARK  420  A    between atoms: _1066  and  _1068
REMARK  421  A    between atoms: _1068  and  _1069
REMARK  422  A    between atoms: _1068  and  _1071
REMARK  423  A    between atoms: _1071  and  _1072
REMARK                            x       y       z     vdW  Elec       q    Type
REMARK                         _______ _______ _______ _____ _____    ______ ____
ROOT
ATOM      1  NE  ARG A   1      21.928  28.972  61.710  0.00  0.00    -0.265 N 
ATOM      2  HE  ARG A   1      22.832  28.704  61.271  0.00  0.00    +0.259 HD
ATOM      3  CZ  ARG A   1      20.788  28.876  61.014  0.00  0.00    +0.342 C 
ATOM      4  NH2 ARG A   1      19.642  29.211  61.605  0.00  0.00    -0.292 N 
ATOM      5 HH21 ARG A   1      19.643  29.541  62.591  0.00  0.00    +0.255 HD
ATOM      6 HH22 ARG A   1      18.747  29.143  61.080  0.00  0.00    +0.255 HD
ATOM      7  NH1 ARG A   1      20.766  28.437  59.769  0.00  0.00    -0.292 N 
ATOM      8 HH11 ARG A   1      21.651  28.154  59.302  0.00  0.00    +0.255 HD
ATOM      9 HH12 ARG A   1      19.864  28.374  59.256  0.00  0.00    +0.255 HD
ENDROOT
BRANCH   1  10
ATOM     10  CD  ARG A   1      21.896  29.460  63.104  0.00  0.00    +0.174 C 
BRANCH  10  11
ATOM     11  CG  ARG A   1      21.944  30.989  63.135  0.00  0.00    +0.045 C 
BRANCH  11  12
ATOM     12  CB  ARG A   1      23.317  31.450  62.625  0.00  0.00    +0.029 C 
BRANCH  12  13
ATOM     13  CA  ARG A   1      24.457  31.098  63.567  0.00  0.00    +0.133 C 
BRANCH  13  14
ATOM     14  N   ARG A   1      24.445  31.954  64.763  0.00  0.00    -0.239 NA
ATOM     15  H   ARG A   1      23.830  32.791  64.817  0.00  0.00    +0.142 HD
ENDBRANCH  13  14
BRANCH  13  16
ATOM     16  C   ARG A   1      25.806  31.377  62.899  0.00  0.00    +0.224 C 
ATOM     17  O   ARG A   1      26.233  32.532  62.913  0.00  0.00    -0.287 OA
ENDBRANCH  13  16
ENDBRANCH  12  13
ENDBRANCH  11  12
ENDBRANCH  10  11
ENDBRANCH   1  10
TORSDOF 6
REMARK  Name = ../refined-set-2016/1fo0/1fo0_pocket.pdb
REMARK  423 active torsions:
REMARK  status: ('A' for Active; 'I' for Inactive)
REMARK    1  A    between atoms: _1  and  _3
REMARK    2  A    between atoms: _3  and  _4
REMARK    3  A    between atoms: _3  and  _6
REMARK    4  A    between atoms: _6  and  _7
REMARK    5  A    between atoms: _10  and  _12
REMARK    6  A    between atoms: _12  and  _13
REMARK    7  A    between atoms: _12  and  _15
REMARK    8  A    between atoms: _15  and  _16
REMARK    9  A    between atoms: _16  and  _17
REMARK   10  A    between atoms: _17  and  _18
REMARK   11  A    between atoms: _27  and  _29
REMARK   12  A    between atoms: _29  and  _30
REMARK   13  A    between atoms: _29  and  _32
REMARK   14  A    between atoms: _32  and  _33
REMARK   15  A    between atoms: _38  and  _39
REMARK   16  A    between atoms: _41  and  _43
REMARK   17  A    between atoms: _43  and  _44
REMARK   18  A    between atoms: _43  and  _46
REMARK   19  A    between atoms: _46  and  _47
REMARK   20  A    between atoms: _53  and  _55
REMARK   21  A    between atoms: _55  and  _56
REMARK   22  A    between atoms: _55  and  _58
REMARK   23  A    between atoms: _61  and  _63
REMARK   24  A    between atoms: _63  and  _64
REMARK   25  A    between atoms: _63  and  _66
REMARK   26  A    between atoms: _66  and  _67
REMARK   27  A    between atoms: _70  and  _72
REMARK   28  A    between atoms: _72  and  _73
REMARK   29  A    between atoms: _72  and  _75
REMARK   30  A    between atoms: _75  and  _76
REMARK   31  A    between atoms: _81  and  _82
REMARK   32  A    between atoms: _84  and  _86
REMARK   33  A    between atoms: _86  and  _87
REMARK   34  A    between atoms: _86  and  _89
REMARK   35  A    between atoms: _89  and  _90
REMARK   36  A    between atoms: _90  and  _91
REMARK   37  A    between atoms: _93  and  _95
REMARK   38  A    between atoms: _95  and  _96
REMARK   39  A    between atoms: _95  and  _98
REMARK   40  A    between atoms: _98  and  _99
REMARK   41  A    between atoms: _99  and  _100
REMARK   42  A    between atoms: _103  and  _105
REMARK   43  A    between atoms: _105  and  _106
REMARK   44  A    between atoms: _105  and  _108
REMARK   45  A    between atoms: _111  and  _113
REMARK   46  A    between atoms: _113  and  _114
REMARK   47  A    between atoms: _116  and  _118
REMARK   48  A    between atoms: _118  and  _119
REMARK   49  A    between atoms: _118  and  _121
REMARK   50  A    between atoms: _121  and  _122
REMARK   51  A    between atoms: _128  and  _130
REMARK   52  A    between atoms: _130  and  _131
REMARK   53  A    between atoms: _130  and  _133
REMARK   54  A    between atoms: _136  and  _138
REMARK   55  A    between atoms: _138  and  _139
REMARK   56  A    between atoms: _138  and  _141
REMARK   57  A    between atoms: _141  and  _142
REMARK   58  A    between atoms: _148  and  _150
REMARK   59  A    between atoms: _150  and  _151
REMARK   60  A    between atoms: _150  and  _153
REMARK   61  A    between atoms: _153  and  _154
REMARK   62  A    between atoms: _159  and  _160
REMARK   63  A    between atoms: _162  and  _164
REMARK   64  A    between atoms: _164  and  _165
REMARK   65  A    between atoms: _164  and  _167
REMARK   66  A    between atoms: _167  and  _168
REMARK   67  A    between atoms: _168  and  _169
REMARK   68  A    between atoms: _171  and  _173
REMARK   69  A    between atoms: _173  and  _174
REMARK   70  A    between atoms: _173  and  _176
REMARK   71  A    between atoms: _176  and  _177
REMARK   72  A    between atoms: _177  and  _178
REMARK   73  A    between atoms: _181  and  _183
REMARK   74  A    between atoms: _183  and  _184
REMARK   75  A    between atoms: _183  and  _186
REMARK   76  A    between atoms: _186  and  _187
REMARK   77  A    between atoms: _192  and  _193
REMARK   78  A    between atoms: _195  and  _197
REMARK   79  A    between atoms: _197  and  _198
REMARK   80  A    between atoms: _197  and  _200
REMARK   81  A    between atoms: _200  and  _201
REMARK   82  A    between atoms: _201  and  _202
REMARK   83  A    between atoms: _202  and  _203
REMARK   84  A    between atoms: _212  and  _214
REMARK   85  A    between atoms: _214  and  _215
REMARK   86  A    between atoms: _214  and  _217
REMARK   87  A    between atoms: _217  and  _218
REMARK   88  A    between atoms: _218  and  _219
REMARK   89  A    between atoms: _222  and  _224
REMARK   90  A    between atoms: _224  and  _225
REMARK   91  A    between atoms: _224  and  _227
REMARK   92  A    between atoms: _227  and  _228
REMARK   93  A    between atoms: _228  and  _229
REMARK   94  A    between atoms: _234  and  _236
REMARK   95  A    between atoms: _236  and  _237
REMARK   96  A    between atoms: _236  and  _239
REMARK   97  A    between atoms: _239  and  _240
REMARK   98  A    between atoms: _240  and  _241
REMARK   99  A    between atoms: _241  and  _242
REMARK  100  A    between atoms: _242  and  _243
REMARK  101  A    between atoms: _247  and  _249
REMARK  102  A    between atoms: _249  and  _250
REMARK  103  A    between atoms: _253  and  _255
REMARK  104  A    between atoms: _255  and  _256
REMARK  105  A    between atoms: _255  and  _258
REMARK  106  A    between atoms: _258  and  _259
REMARK  107  A    between atoms: _259  and  _260
REMARK  108  A    between atoms: _260  and  _261
REMARK  109  A    between atoms: _261  and  _262
REMARK  110  A    between atoms: _266  and  _268
REMARK  111  A    between atoms: _268  and  _269
REMARK  112  A    between atoms: _271  and  _273
REMARK  113  A    between atoms: _273  and  _274
REMARK  114  A    between atoms: _273  and  _276
REMARK  115  A    between atoms: _276  and  _277
REMARK  116  A    between atoms: _282  and  _284
REMARK  117  A    between atoms: _284  and  _285
REMARK  118  A    between atoms: _284  and  _287
REMARK  119  A    between atoms: _287  and  _288
REMARK  120  A    between atoms: _288  and  _289
REMARK  121  A    between atoms: _292  and  _294
REMARK  122  A    between atoms: _294  and  _295
REMARK  123  A    between atoms: _294  and  _297
REMARK  124  A    between atoms: _297  and  _298
REMARK  125  A    between atoms: _298  and  _299
REMARK  126  A    between atoms: _304  and  _306
REMARK  127  A    between atoms: _306  and  _307
REMARK  128  A    between atoms: _306  and  _309
REMARK  129  A    between atoms: _309  and  _310
REMARK  130  A    between atoms: _312  and  _314
REMARK  131  A    between atoms: _314  and  _315
REMARK  132  A    between atoms: _314  and  _317
REMARK  133  A    between atoms: _317  and  _318
REMARK  134  A    between atoms: _324  and  _326
REMARK  135  A    between atoms: _326  and  _327
REMARK  136  A    between atoms: _326  and  _329
REMARK  137  A    between atoms: _329  and  _330
REMARK  138  A    between atoms: _330  and  _331
REMARK  139  A    between atoms: _331  and  _332
REMARK  140  A    between atoms: _341  and  _343
REMARK  141  A    between atoms: _343  and  _344
REMARK  142  A    between atoms: _343  and  _346
REMARK  143  A    between atoms: _349  and  _351
REMARK  144  A    between atoms: _351  and  _352
REMARK  145  A    between atoms: _351  and  _354
REMARK  146  A    between atoms: _354  and  _355
REMARK  147  A    between atoms: _358  and  _360
REMARK  148  A    between atoms: _360  and  _361
REMARK  149  A    between atoms: _360  and  _363
REMARK  150  A    between atoms: _363  and  _364
REMARK  151  A    between atoms: _367  and  _369
REMARK  152  A    between atoms: _369  and  _370
REMARK  153  A    between atoms: _369  and  _372
REMARK  154  A    between atoms: _372  and  _373
REMARK  155  A    between atoms: _373  and  _374
REMARK  156  A    between atoms: _374  and  _375
REMARK  157  A    between atoms: _384  and  _386
REMARK  158  A    between atoms: _386  and  _387
REMARK  159  A    between atoms: _386  and  _389
REMARK  160  A    between atoms: _389  and  _390
REMARK  161  A    between atoms: _393  and  _395
REMARK  162  A    between atoms: _395  and  _396
REMARK  163  A    between atoms: _395  and  _398
REMARK  164  A    between atoms: _398  and  _399
REMARK  165  A    between atoms: _402  and  _404
REMARK  166  A    between atoms: _404  and  _405
REMARK  167  A    between atoms: _404  and  _407
REMARK  168  A    between atoms: _407  and  _408
REMARK  169  A    between atoms: _411  and  _413
REMARK  170  A    between atoms: _413  and  _414
REMARK  171  A    between atoms: _413  and  _416
REMARK  172  A    between atoms: _416  and  _417
REMARK  173  A    between atoms: _422  and  _423
REMARK  174  A    between atoms: _425  and  _427
REMARK  175  A    between atoms: _427  and  _428
REMARK  176  A    between atoms: _427  and  _430
REMARK  177  A    between atoms: _430  and  _431
REMARK  178  A    between atoms: _436  and  _437
REMARK  179  A    between atoms: _439  and  _441
REMARK  180  A    between atoms: _441  and  _442
REMARK  181  A    between atoms: _441  and  _444
REMARK  182  A    between atoms: _444  and  _445
REMARK  183  A    between atoms: _448  and  _450
REMARK  184  A    between atoms: _450  and  _451
REMARK  185  A    between atoms: _450  and  _453
REMARK  186  A    between atoms: _456  and  _458
REMARK  187  A    between atoms: _458  and  _459
REMARK  188  A    between atoms: _458  and  _461
REMARK  189  A    between atoms: _461  and  _462
REMARK  190  A    between atoms: _465  and  _467
REMARK  191  A    between atoms: _467  and  _468
REMARK  192  A    between atoms: _467  and  _470
REMARK  193  A    between atoms: _470  and  _471
REMARK  194  A    between atoms: _473  and  _475
REMARK  195  A    between atoms: _475  and  _476
REMARK  196  A    between atoms: _478  and  _480
REMARK  197  A    between atoms: _480  and  _481
REMARK  198  A    between atoms: _480  and  _483
REMARK  199  A    between atoms: _483  and  _484
REMARK  200  A    between atoms: _489  and  _490
REMARK  201  A    between atoms: _492  and  _494
REMARK  202  A    between atoms: _494  and  _495
REMARK  203  A    between atoms: _494  and  _497
REMARK  204  A    between atoms: _497  and  _498
REMARK  205  A    between atoms: _498  and  _499
REMARK  206  A    between atoms: _504  and  _506
REMARK  207  A    between atoms: _506  and  _507
REMARK  208  A    between atoms: _506  and  _509
REMARK  209  A    between atoms: _509  and  _510
REMARK  210  A    between atoms: _510  and  _511
REMARK  211  A    between atoms: _516  and  _518
REMARK  212  A    between atoms: _518  and  _519
REMARK  213  A    between atoms: _518  and  _521
REMARK  214  A    between atoms: _521  and  _522
REMARK  215  A    between atoms: _527  and  _528
REMARK  216  A    between atoms: _530  and  _532
REMARK  217  A    between atoms: _532  and  _533
REMARK  218  A    between atoms: _532  and  _535
REMARK  219  A    between atoms: _535  and  _536
REMARK  220  A    between atoms: _541  and  _542
REMARK  221  A    between atoms: _544  and  _546
REMARK  222  A    between atoms: _546  and  _547
REMARK  223  A    between atoms: _546  and  _549
REMARK  224  A    between atoms: _549  and  _550
REMARK  225  A    between atoms: _555  and  _556
REMARK  226  A    between atoms: _558  and  _560
REMARK  227  A    between atoms: _560  and  _561
REMARK  228  A    between atoms: _560  and  _563
REMARK  229  A    between atoms: _563  and  _564
REMARK  230  A    between atoms: _567  and  _569
REMARK  231  A    between atoms: _569  and  _570
REMARK  232  A    between atoms: _569  and  _572
REMARK  233  A    between atoms: _572  and  _573
REMARK  234  A    between atoms: _583  and  _585
REMARK  235  A    between atoms: _585  and  _586
REMARK  236  A    between atoms: _589  and  _591
REMARK  237  A    between atoms: _591  and  _592
REMARK  238  A    between atoms: _595  and  _597
REMARK  239  A    between atoms: _597  and  _598
REMARK  240  A    between atoms: _597  and  _600
REMARK  241  A    between atoms: _600  and  _601
REMARK  242  A    between atoms: _604  and  _606
REMARK  243  A    between atoms: _606  and  _607
REMARK  244  A    between atoms: _606  and  _609
REMARK  245  A    between atoms: _609  and  _610
REMARK  246  A    between atoms: _613  and  _615
REMARK  247  A    between atoms: _615  and  _616
REMARK  248  A    between atoms: _615  and  _618
REMARK  249  A    between atoms: _618  and  _619
REMARK  250  A    between atoms: _622  and  _624
REMARK  251  A    between atoms: _624  and  _625
REMARK  252  A    between atoms: _624  and  _627
REMARK  253  A    between atoms: _627  and  _628
REMARK  254  A    between atoms: _628  and  _629
REMARK  255  A    between atoms: _629  and  _630
REMARK  256  A    between atoms: _630  and  _631
REMARK  257  A    between atoms: _635  and  _637
REMARK  258  A    between atoms: _637  and  _638
REMARK  259  A    between atoms: _637  and  _640
REMARK  260  A    between atoms: _640  and  _641
REMARK  261  A    between atoms: _646  and  _648
REMARK  262  A    between atoms: _648  and  _649
REMARK  263  A    between atoms: _648  and  _651
REMARK  264  A    between atoms: _651  and  _652
REMARK  265  A    between atoms: _652  and  _653
REMARK  266  A    between atoms: _653  and  _654
REMARK  267  A    between atoms: _654  and  _655
REMARK  268  A    between atoms: _659  and  _661
REMARK  269  A    between atoms: _661  and  _662
REMARK  270  A    between atoms: _661  and  _664
REMARK  271  A    between atoms: _664  and  _665
REMARK  272  A    between atoms: _675  and  _677
REMARK  273  A    between atoms: _677  and  _678
REMARK  274  A    between atoms: _681  and  _683
REMARK  275  A    between atoms: _683  and  _684
REMARK  276  A    between atoms: _686  and  _688
REMARK  277  A    between atoms: _688  and  _689
REMARK  278  A    between atoms: _688  and  _691
REMARK  279  A    between atoms: _691  and  _692
REMARK  280  A    between atoms: _692  and  _693
REMARK  281  A    between atoms: _696  and  _698
REMARK  282  A    between atoms: _698  and  _699
REMARK  283  A    between atoms: _702  and  _704
REMARK  284  A    between atoms: _704  and  _705
REMARK  285  A    between atoms: _704  and  _707
REMARK  286  A    between atoms: _707  and  _708
REMARK  287  A    between atoms: _708  and  _709
REMARK  288  A    between atoms: _712  and  _714
REMARK  289  A    between atoms: _714  and  _715
REMARK  290  A    between atoms: _714  and  _717
REMARK  291  A    between atoms: _717  and  _718
REMARK  292  A    between atoms: _718  and  _719
REMARK  293  A    between atoms: _719  and  _720
REMARK  294  A    between atoms: _729  and  _731
REMARK  295  A    between atoms: _731  and  _732
REMARK  296  A    between atoms: _731  and  _734
REMARK  297  A    between atoms: _734  and  _735
REMARK  298  A    between atoms: _738  and  _740
REMARK  299  A    between atoms: _740  and  _741
REMARK  300  A    between atoms: _740  and  _743
REMARK  301  A    between atoms: _743  and  _744
REMARK  302  A    between atoms: _744  and  _745
REMARK  303  A    between atoms: _745  and  _746
REMARK  304  A    between atoms: _755  and  _757
REMARK  305  A    between atoms: _757  and  _758
REMARK  306  A    between atoms: _761  and  _763
REMARK  307  A    between atoms: _763  and  _764
REMARK  308  A    between atoms: _763  and  _766
REMARK  309  A    between atoms: _766  and  _767
REMARK  310  A    between atoms: _772  and  _773
REMARK  311  A    between atoms: _775  and  _777
REMARK  312  A    between atoms: _777  and  _778
REMARK  313  A    between atoms: _777  and  _780
REMARK  314  A    between atoms: _780  and  _781
REMARK  315  A    between atoms: _784  and  _786
REMARK  316  A    between atoms: _786  and  _787
REMARK  317  A    between atoms: _786  and  _789
REMARK  318  A    between atoms: _789  and  _790
REMARK  319  A    between atoms: _793  and  _795
REMARK  320  A    between atoms: _795  and  _796
REMARK  321  A    between atoms: _795  and  _798
REMARK  322  A    between atoms: _800  and  _802
REMARK  323  A    between atoms: _802  and  _803
REMARK  324  A    between atoms: _802  and  _805
REMARK  325  A    between atoms: _808  and  _810
REMARK  326  A    between atoms: _810  and  _811
REMARK  327  A    between atoms: _810  and  _813
REMARK  328  A    between atoms: _813  and  _814
REMARK  329  A    between atoms: _814  and  _815
REMARK  330  A    between atoms: _818  and  _820
REMARK  331  A    between atoms: _820  and  _821
REMARK  332  A    between atoms: _820  and  _823
REMARK  333  A    between atoms: _823  and  _824
REMARK  334  A    between atoms: _834  and  _836
REMARK  335  A    between atoms: _836  and  _837
REMARK  336  A    between atoms: _836  and  _839
REMARK  337  A    between atoms: _839  and  _840
REMARK  338  A    between atoms: _843  and  _845
REMARK  339  A    between atoms: _845  and  _846
REMARK  340  A    between atoms: _845  and  _848
REMARK  341  A    between atoms: _848  and  _849
REMARK  342  A    between atoms: _849  and  _850
REMARK  343  A    between atoms: _850  and  _851
REMARK  344  A    between atoms: _860  and  _862
REMARK  345  A    between atoms: _862  and  _863
REMARK  346  A    between atoms: _862  and  _865
REMARK  347  A    between atoms: _865  and  _866
REMARK  348  A    between atoms: _871  and  _872
REMARK  349  A    between atoms: _874  and  _876
REMARK  350  A    between atoms: _876  and  _877
REMARK  351  A    between atoms: _876  and  _879
REMARK  352  A    between atoms: _879  and  _880
REMARK  353  A    between atoms: _880  and  _881
REMARK  354  A    between atoms: _886  and  _888
REMARK  355  A    between atoms: _888  and  _889
REMARK  356  A    between atoms: _888  and  _891
REMARK  357  A    between atoms: _891  and  _892
REMARK  358  A    between atoms: _895  and  _897
REMARK  359  A    between atoms: _897  and  _898
REMARK  360  A    between atoms: _897  and  _900
REMARK  361  A    between atoms: _900  and  _901
REMARK  362  A    between atoms: _903  and  _905
REMARK  363  A    between atoms: _905  and  _906
REMARK  364  A    between atoms: _905  and  _908
REMARK  365  A    between atoms: _908  and  _909
REMARK  366  A    between atoms: _911  and  _913
REMARK  367  A    between atoms: _913  and  _914
REMARK  368  A    between atoms: _913  and  _916
REMARK  369  A    between atoms: _916  and  _917
REMARK  370  A    between atoms: _923  and  _925
REMARK  371  A    between atoms: _925  and  _926
REMARK  372  A    between atoms: _925  and  _928
REMARK  373  A    between atoms: _928  and  _929
REMARK  374  A    between atoms: _929  and  _930
REMARK  375  A    between atoms: _930  and  _931
REMARK  376  A    between atoms: _940  and  _942
REMARK  377  A    between atoms: _942  and  _943
REMARK  378  A    between atoms: _942  and  _945
REMARK  379  A    between atoms: _945  and  _946
REMARK  380  A    between atoms: _946  and  _947
REMARK  381  A    between atoms: _947  and  _948
REMARK  382  A    between atoms: _957  and  _959
REMARK  383  A    between atoms: _959  and  _960
REMARK  384  A    between atoms: _962  and  _964
REMARK  385  A    between atoms: _964  and  _965
REMARK  386  A    between atoms: _964  and  _967
REMARK  387  A    between atoms: _967  and  _968
REMARK  388  A    between atoms: _974  and  _975
REMARK  389  A    between atoms: _980  and  _982
REMARK  390  A    between atoms: _982  and  _983
REMARK  391  A    between atoms: _982  and  _985
REMARK  392  A    between atoms: _985  and  _986
REMARK  393  A    between atoms: _996  and  _998
REMARK  394  A    between atoms: _998  and  _999
REMARK  395  A    between atoms: _998  and  _1001
REMARK  396  A    between atoms: _1001  and  _1002
REMARK  397  A    between atoms: _1002  and  _1003
REMARK  398  A    between atoms: _1003  and  _1004
REMARK  399  A    between atoms: _1013  and  _1015
REMARK  400  A    between atoms: _1015  and  _1016
REMARK  401  A    between atoms: _1015  and  _1018
REMARK  402  A    between atoms: _1018  and  _1019
REMARK  403  A    between atoms: _1021  and  _1023
REMARK  404  A    between atoms: _1023  and  _1024
REMARK  405  A    between atoms: _1027  and  _1029
REMARK  406  A    between atoms: _1029  and  _1030
REMARK  407  A    between atoms: _1029  and  _1032
REMARK  408  A    between atoms: _1032  and  _1033
REMARK  409  A    between atoms: _1036  and  _1038
REMARK  410  A    between atoms: _1038  and  _1039
REMARK  411  A    between atoms: _1038  and  _1041
REMARK  412  A    between atoms: _1041  and  _1042
REMARK  413  A    between atoms: _1042  and  _1043
REMARK  414  A    between atoms: _1043  and  _1044
REMARK  415  A    between atoms: _1053  and  _1055
REMARK  416  A    between atoms: _1055  and  _1056
REMARK  417  A    between atoms: _1055  and  _1058
REMARK  418  A    between atoms: _1061  and  _1063
REMARK  419  A    between atoms: _1063  and  _1064
REMARK  420  A    between atoms: _1066  and  _1068
REMARK  421  A    between atoms: _1068  and  _1069
REMARK  422  A    between atoms: _1068  and  _1071
REMARK  423  A    between atoms: _1071  and  _1072
REMARK                            x       y       z     vdW  Elec       q    Type
REMARK                         _______ _______ _______ _____ _____    ______ ____
ROOT
ATOM      1  CA  ASN A   2      21.462  25.156  60.353  0.00  0.00    +0.146 C 
ENDROOT
BRANCH   1   3
ATOM      2  C   GLY A   1      21.860  25.339  57.980  0.00  0.00    +0.240 C 
ATOM      3  N   ASN A   2      22.022  24.622  59.094  0.00  0.00    -0.298 N 
ATOM      4  H   ASN A   2      22.528  23.713  59.077  0.00  0.00    +0.150 HD
ATOM      5  O   GLY A   1      21.276  26.445  58.012  0.00  0.00    -0.274 OA
BRANCH   2   6
ATOM      6  CA  GLY A   1      22.378  24.814  56.692  0.00  0.00    +0.169 C 
BRANCH   6   7
ATOM      7  N   GLY A   1      23.810  24.668  56.535  0.00  0.00    -0.236 NA
ATOM      8  H   GLY A   1      24.335  25.348  55.949  0.00  0.00    +0.142 HD
ENDBRANCH   6   7
ENDBRANCH   2   6
ENDBRANCH   1   3
BRANCH   1   9
ATOM      9  C   ASN A   2      22.456  25.029  61.494  0.00  0.00    +0.227 C 
ATOM     10  O   ASN A   2      22.153  24.524  62.590  0.00  0.00    -0.286 OA
ENDBRANCH   1   9
BRANCH   1  11
ATOM     11  CB  ASN A   2      20.152  24.463  60.648  0.00  0.00    +0.112 C 
BRANCH  11  12
ATOM     12  CG  ASN A   2      18.884  24.976  60.049  0.00  0.00    +0.222 C 
ATOM     13  OD1 ASN A   2      17.805  24.470  60.382  0.00  0.00    -0.275 OA
ATOM     14  ND2 ASN A   2      18.916  25.971  59.185  0.00  0.00    -0.329 N 
ATOM     15 HD21 ASN A   2      19.826  26.392  58.910  0.00  0.00    +0.145 HD
ATOM     16 HD22 ASN A   2      18.031  26.336  58.779  0.00  0.00    +0.145 HD
ENDBRANCH  11  12
ENDBRANCH   1  11
TORSDOF 6
REMARK  Name = ../refined-set-2016/1fo0/1fo0_pocket.pdb
REMARK  423 active torsions:
REMARK  status: ('A' for Active; 'I' for Inactive)
REMARK    1  A    between atoms: _1  and  _3
REMARK    2  A    between atoms: _3  and  _4
REMARK    3  A    between atoms: _3  and  _6
REMARK    4  A    between atoms: _6  and  _7
REMARK    5  A    between atoms: _10  and  _12
REMARK    6  A    between atoms: _12  and  _13
REMARK    7  A    between atoms: _12  and  _15
REMARK    8  A    between atoms: _15  and  _16
REMARK    9  A    between atoms: _16  and  _17
REMARK   10  A    between atoms: _17  and  _18
REMARK   11  A    between atoms: _27  and  _29
REMARK   12  A    between atoms: _29  and  _30
REMARK   13  A    between atoms: _29  and  _32
REMARK   14  A    between atoms: _32  and  _33
REMARK   15  A    between atoms: _38  and  _39
REMARK   16  A    between atoms: _41  and  _43
REMARK   17  A    between atoms: _43  and  _44
REMARK   18  A    between atoms: _43  and  _46
REMARK   19  A    between atoms: _46  and  _47
REMARK   20  A    between atoms: _53  and  _55
REMARK   21  A    between atoms: _55  and  _56
REMARK   22  A    between atoms: _55  and  _58
REMARK   23  A    between atoms: _61  and  _63
REMARK   24  A    between atoms: _63  and  _64
REMARK   25  A    between atoms: _63  and  _66
REMARK   26  A    between atoms: _66  and  _67
REMARK   27  A    between atoms: _70  and  _72
REMARK   28  A    between atoms: _72  and  _73
REMARK   29  A    between atoms: _72  and  _75
REMARK   30  A    between atoms: _75  and  _76
REMARK   31  A    between atoms: _81  and  _82
REMARK   32  A    between atoms: _84  and  _86
REMARK   33  A    between atoms: _86  and  _87
REMARK   34  A    between atoms: _86  and  _89
REMARK   35  A    between atoms: _89  and  _90
REMARK   36  A    between atoms: _90  and  _91
REMARK   37  A    between atoms: _93  and  _95
REMARK   38  A    between atoms: _95  and  _96
REMARK   39  A    between atoms: _95  and  _98
REMARK   40  A    between atoms: _98  and  _99
REMARK   41  A    between atoms: _99  and  _100
REMARK   42  A    between atoms: _103  and  _105
REMARK   43  A    between atoms: _105  and  _106
REMARK   44  A    between atoms: _105  and  _108
REMARK   45  A    between atoms: _111  and  _113
REMARK   46  A    between atoms: _113  and  _114
REMARK   47  A    between atoms: _116  and  _118
REMARK   48  A    between atoms: _118  and  _119
REMARK   49  A    between atoms: _118  and  _121
REMARK   50  A    between atoms: _121  and  _122
REMARK   51  A    between atoms: _128  and  _130
REMARK   52  A    between atoms: _130  and  _131
REMARK   53  A    between atoms: _130  and  _133
REMARK   54  A    between atoms: _136  and  _138
REMARK   55  A    between atoms: _138  and  _139
REMARK   56  A    between atoms: _138  and  _141
REMARK   57  A    between atoms: _141  and  _142
REMARK   58  A    between atoms: _148  and  _150
REMARK   59  A    between atoms: _150  and  _151
REMARK   60  A    between atoms: _150  and  _153
REMARK   61  A    between atoms: _153  and  _154
REMARK   62  A    between atoms: _159  and  _160
REMARK   63  A    between atoms: _162  and  _164
REMARK   64  A    between atoms: _164  and  _165
REMARK   65  A    between atoms: _164  and  _167
REMARK   66  A    between atoms: _167  and  _168
REMARK   67  A    between atoms: _168  and  _169
REMARK   68  A    between atoms: _171  and  _173
REMARK   69  A    between atoms: _173  and  _174
REMARK   70  A    between atoms: _173  and  _176
REMARK   71  A    between atoms: _176  and  _177
REMARK   72  A    between atoms: _177  and  _178
REMARK   73  A    between atoms: _181  and  _183
REMARK   74  A    between atoms: _183  and  _184
REMARK   75  A    between atoms: _183  and  _186
REMARK   76  A    between atoms: _186  and  _187
REMARK   77  A    between atoms: _192  and  _193
REMARK   78  A    between atoms: _195  and  _197
REMARK   79  A    between atoms: _197  and  _198
REMARK   80  A    between atoms: _197  and  _200
REMARK   81  A    between atoms: _200  and  _201
REMARK   82  A    between atoms: _201  and  _202
REMARK   83  A    between atoms: _202  and  _203
REMARK   84  A    between atoms: _212  and  _214
REMARK   85  A    between atoms: _214  and  _215
REMARK   86  A    between atoms: _214  and  _217
REMARK   87  A    between atoms: _217  and  _218
REMARK   88  A    between atoms: _218  and  _219
REMARK   89  A    between atoms: _222  and  _224
REMARK   90  A    between atoms: _224  and  _225
REMARK   91  A    between atoms: _224  and  _227
REMARK   92  A    between atoms: _227  and  _228
REMARK   93  A    between atoms: _228  and  _229
REMARK   94  A    between atoms: _234  and  _236
REMARK   95  A    between atoms: _236  and  _237
REMARK   96  A    between atoms: _236  and  _239
REMARK   97  A    between atoms: _239  and  _240
REMARK   98  A    between atoms: _240  and  _241
REMARK   99  A    between atoms: _241  and  _242
REMARK  100  A    between atoms: _242  and  _243
REMARK  101  A    between atoms: _247  and  _249
REMARK  102  A    between atoms: _249  and  _250
REMARK  103  A    between atoms: _253  and  _255
REMARK  104  A    between atoms: _255  and  _256
REMARK  105  A    between atoms: _255  and  _258
REMARK  106  A    between atoms: _258  and  _259
REMARK  107  A    between atoms: _259  and  _260
REMARK  108  A    between atoms: _260  and  _261
REMARK  109  A    between atoms: _261  and  _262
REMARK  110  A    between atoms: _266  and  _268
REMARK  111  A    between atoms: _268  and  _269
REMARK  112  A    between atoms: _271  and  _273
REMARK  113  A    between atoms: _273  and  _274
REMARK  114  A    between atoms: _273  and  _276
REMARK  115  A    between atoms: _276  and  _277
REMARK  116  A    between atoms: _282  and  _284
REMARK  117  A    between atoms: _284  and  _285
REMARK  118  A    between atoms: _284  and  _287
REMARK  119  A    between atoms: _287  and  _288
REMARK  120  A    between atoms: _288  and  _289
REMARK  121  A    between atoms: _292  and  _294
REMARK  122  A    between atoms: _294  and  _295
REMARK  123  A    between atoms: _294  and  _297
REMARK  124  A    between atoms: _297  and  _298
REMARK  125  A    between atoms: _298  and  _299
REMARK  126  A    between atoms: _304  and  _306
REMARK  127  A    between atoms: _306  and  _307
REMARK  128  A    between atoms: _306  and  _309
REMARK  129  A    between atoms: _309  and  _310
REMARK  130  A    between atoms: _312  and  _314
REMARK  131  A    between atoms: _314  and  _315
REMARK  132  A    between atoms: _314  and  _317
REMARK  133  A    between atoms: _317  and  _318
REMARK  134  A    between atoms: _324  and  _326
REMARK  135  A    between atoms: _326  and  _327
REMARK  136  A    between atoms: _326  and  _329
REMARK  137  A    between atoms: _329  and  _330
REMARK  138  A    between atoms: _330  and  _331
REMARK  139  A    between atoms: _331  and  _332
REMARK  140  A    between atoms: _341  and  _343
REMARK  141  A    between atoms: _343  and  _344
REMARK  142  A    between atoms: _343  and  _346
REMARK  143  A    between atoms: _349  and  _351
REMARK  144  A    between atoms: _351  and  _352
REMARK  145  A    between atoms: _351  and  _354
REMARK  146  A    between atoms: _354  and  _355
REMARK  147  A    between atoms: _358  and  _360
REMARK  148  A    between atoms: _360  and  _361
REMARK  149  A    between atoms: _360  and  _363
REMARK  150  A    between atoms: _363  and  _364
REMARK  151  A    between atoms: _367  and  _369
REMARK  152  A    between atoms: _369  and  _370
REMARK  153  A    between atoms: _369  and  _372
REMARK  154  A    between atoms: _372  and  _373
REMARK  155  A    between atoms: _373  and  _374
REMARK  156  A    between atoms: _374  and  _375
REMARK  157  A    between atoms: _384  and  _386
REMARK  158  A    between atoms: _386  and  _387
REMARK  159  A    between atoms: _386  and  _389
REMARK  160  A    between atoms: _389  and  _390
REMARK  161  A    between atoms: _393  and  _395
REMARK  162  A    between atoms: _395  and  _396
REMARK  163  A    between atoms: _395  and  _398
REMARK  164  A    between atoms: _398  and  _399
REMARK  165  A    between atoms: _402  and  _404
REMARK  166  A    between atoms: _404  and  _405
REMARK  167  A    between atoms: _404  and  _407
REMARK  168  A    between atoms: _407  and  _408
REMARK  169  A    between atoms: _411  and  _413
REMARK  170  A    between atoms: _413  and  _414
REMARK  171  A    between atoms: _413  and  _416
REMARK  172  A    between atoms: _416  and  _417
REMARK  173  A    between atoms: _422  and  _423
REMARK  174  A    between atoms: _425  and  _427
REMARK  175  A    between atoms: _427  and  _428
REMARK  176  A    between atoms: _427  and  _430
REMARK  177  A    between atoms: _430  and  _431
REMARK  178  A    between atoms: _436  and  _437
REMARK  179  A    between atoms: _439  and  _441
REMARK  180  A    between atoms: _441  and  _442
REMARK  181  A    between atoms: _441  and  _444
REMARK  182  A    between atoms: _444  and  _445
REMARK  183  A    between atoms: _448  and  _450
REMARK  184  A    between atoms: _450  and  _451
REMARK  185  A    between atoms: _450  and  _453
REMARK  186  A    between atoms: _456  and  _458
REMARK  187  A    between atoms: _458  and  _459
REMARK  188  A    between atoms: _458  and  _461
REMARK  189  A    between atoms: _461  and  _462
REMARK  190  A    between atoms: _465  and  _467
REMARK  191  A    between atoms: _467  and  _468
REMARK  192  A    between atoms: _467  and  _470
REMARK  193  A    between atoms: _470  and  _471
REMARK  194  A    between atoms: _473  and  _475
REMARK  195  A    between atoms: _475  and  _476
REMARK  196  A    between atoms: _478  and  _480
REMARK  197  A    between atoms: _480  and  _481
REMARK  198  A    between atoms: _480  and  _483
REMARK  199  A    between atoms: _483  and  _484
REMARK  200  A    between atoms: _489  and  _490
REMARK  201  A    between atoms: _492  and  _494
REMARK  202  A    between atoms: _494  and  _495
REMARK  203  A    between atoms: _494  and  _497
REMARK  204  A    between atoms: _497  and  _498
REMARK  205  A    between atoms: _498  and  _499
REMARK  206  A    between atoms: _504  and  _506
REMARK  207  A    between atoms: _506  and  _507
REMARK  208  A    between atoms: _506  and  _509
REMARK  209  A    between atoms: _509  and  _510
REMARK  210  A    between atoms: _510  and  _511
REMARK  211  A    between atoms: _516  and  _518
REMARK  212  A    between atoms: _518  and  _519
REMARK  213  A    between atoms: _518  and  _521
REMARK  214  A    between atoms: _521  and  _522
REMARK  215  A    between atoms: _527  and  _528
REMARK  216  A    between atoms: _530  and  _532
REMARK  217  A    between atoms: _532  and  _533
REMARK  218  A    between atoms: _532  and  _535
REMARK  219  A    between atoms: _535  and  _536
REMARK  220  A    between atoms: _541  and  _542
REMARK  221  A    between atoms: _544  and  _546
REMARK  222  A    between atoms: _546  and  _547
REMARK  223  A    between atoms: _546  and  _549
REMARK  224  A    between atoms: _549  and  _550
REMARK  225  A    between atoms: _555  and  _556
REMARK  226  A    between atoms: _558  and  _560
REMARK  227  A    between atoms: _560  and  _561
REMARK  228  A    between atoms: _560  and  _563
REMARK  229  A    between atoms: _563  and  _564
REMARK  230  A    between atoms: _567  and  _569
REMARK  231  A    between atoms: _569  and  _570
REMARK  232  A    between atoms: _569  and  _572
REMARK  233  A    between atoms: _572  and  _573
REMARK  234  A    between atoms: _583  and  _585
REMARK  235  A    between atoms: _585  and  _586
REMARK  236  A    between atoms: _589  and  _591
REMARK  237  A    between atoms: _591  and  _592
REMARK  238  A    between atoms: _595  and  _597
REMARK  239  A    between atoms: _597  and  _598
REMARK  240  A    between atoms: _597  and  _600
REMARK  241  A    between atoms: _600  and  _601
REMARK  242  A    between atoms: _604  and  _606
REMARK  243  A    between atoms: _606  and  _607
REMARK  244  A    between atoms: _606  and  _609
REMARK  245  A    between atoms: _609  and  _610
REMARK  246  A    between atoms: _613  and  _615
REMARK  247  A    between atoms: _615  and  _616
REMARK  248  A    between atoms: _615  and  _618
REMARK  249  A    between atoms: _618  and  _619
REMARK  250  A    between atoms: _622  and  _624
REMARK  251  A    between atoms: _624  and  _625
REMARK  252  A    between atoms: _624  and  _627
REMARK  253  A    between atoms: _627  and  _628
REMARK  254  A    between atoms: _628  and  _629
REMARK  255  A    between atoms: _629  and  _630
REMARK  256  A    between atoms: _630  and  _631
REMARK  257  A    between atoms: _635  and  _637
REMARK  258  A    between atoms: _637  and  _638
REMARK  259  A    between atoms: _637  and  _640
REMARK  260  A    between atoms: _640  and  _641
REMARK  261  A    between atoms: _646  and  _648
REMARK  262  A    between atoms: _648  and  _649
REMARK  263  A    between atoms: _648  and  _651
REMARK  264  A    between atoms: _651  and  _652
REMARK  265  A    between atoms: _652  and  _653
REMARK  266  A    between atoms: _653  and  _654
REMARK  267  A    between atoms: _654  and  _655
REMARK  268  A    between atoms: _659  and  _661
REMARK  269  A    between atoms: _661  and  _662
REMARK  270  A    between atoms: _661  and  _664
REMARK  271  A    between atoms: _664  and  _665
REMARK  272  A    between atoms: _675  and  _677
REMARK  273  A    between atoms: _677  and  _678
REMARK  274  A    between atoms: _681  and  _683
REMARK  275  A    between atoms: _683  and  _684
REMARK  276  A    between atoms: _686  and  _688
REMARK  277  A    between atoms: _688  and  _689
REMARK  278  A    between atoms: _688  and  _691
REMARK  279  A    between atoms: _691  and  _692
REMARK  280  A    between atoms: _692  and  _693
REMARK  281  A    between atoms: _696  and  _698
REMARK  282  A    between atoms: _698  and  _699
REMARK  283  A    between atoms: _702  and  _704
REMARK  284  A    between atoms: _704  and  _705
REMARK  285  A    between atoms: _704  and  _707
REMARK  286  A    between atoms: _707  and  _708
REMARK  287  A    between atoms: _708  and  _709
REMARK  288  A    between atoms: _712  and  _714
REMARK  289  A    between atoms: _714  and  _715
REMARK  290  A    between atoms: _714  and  _717
REMARK  291  A    between atoms: _717  and  _718
REMARK  292  A    between atoms: _718  and  _719
REMARK  293  A    between atoms: _719  and  _720
REMARK  294  A    between atoms: _729  and  _731
REMARK  295  A    between atoms: _731  and  _732
REMARK  296  A    between atoms: _731  and  _734
REMARK  297  A    between atoms: _734  and  _735
REMARK  298  A    between atoms: _738  and  _740
REMARK  299  A    between atoms: _740  and  _741
REMARK  300  A    between atoms: _740  and  _743
REMARK  301  A    between atoms: _743  and  _744
REMARK  302  A    between atoms: _744  and  _745
REMARK  303  A    between atoms: _745  and  _746
REMARK  304  A    between atoms: _755  and  _757
REMARK  305  A    between atoms: _757  and  _758
REMARK  306  A    between atoms: _761  and  _763
REMARK  307  A    between atoms: _763  and  _764
REMARK  308  A    between atoms: _763  and  _766
REMARK  309  A    between atoms: _766  and  _767
REMARK  310  A    between atoms: _772  and  _773
REMARK  311  A    between atoms: _775  and  _777
REMARK  312  A    between atoms: _777  and  _778
REMARK  313  A    between atoms: _777  and  _780
REMARK  314  A    between atoms: _780  and  _781
REMARK  315  A    between atoms: _784  and  _786
REMARK  316  A    between atoms: _786  and  _787
REMARK  317  A    between atoms: _786  and  _789
REMARK  318  A    between atoms: _789  and  _790
REMARK  319  A    between atoms: _793  and  _795
REMARK  320  A    between atoms: _795  and  _796
REMARK  321  A    between atoms: _795  and  _798
REMARK  322  A    between atoms: _800  and  _802
REMARK  323  A    between atoms: _802  and  _803
REMARK  324  A    between atoms: _802  and  _805
REMARK  325  A    between atoms: _808  and  _810
REMARK  326  A    between atoms: _810  and  _811
REMARK  327  A    between atoms: _810  and  _813
REMARK  328  A    between atoms: _813  and  _814
REMARK  329  A    between atoms: _814  and  _815
REMARK  330  A    between atoms: _818  and  _820
REMARK  331  A    between atoms: _820  and  _821
REMARK  332  A    between atoms: _820  and  _823
REMARK  333  A    between atoms: _823  and  _824
REMARK  334  A    between atoms: _834  and  _836
REMARK  335  A    between atoms: _836  and  _837
REMARK  336  A    between atoms: _836  and  _839
REMARK  337  A    between atoms: _839  and  _840
REMARK  338  A    between atoms: _843  and  _845
REMARK  339  A    between atoms: _845  and  _846
REMARK  340  A    between atoms: _845  and  _848
REMARK  341  A    between atoms: _848  and  _849
REMARK  342  A    between atoms: _849  and  _850
REMARK  343  A    between atoms: _850  and  _851
REMARK  344  A    between atoms: _860  and  _862
REMARK  345  A    between atoms: _862  and  _863
REMARK  346  A    between atoms: _862  and  _865
REMARK  347  A    between atoms: _865  and  _866
REMARK  348  A    between atoms: _871  and  _872
REMARK  349  A    between atoms: _874  and  _876
REMARK  350  A    between atoms: _876  and  _877
REMARK  351  A    between atoms: _876  and  _879
REMARK  352  A    between atoms: _879  and  _880
REMARK  353  A    between atoms: _880  and  _881
REMARK  354  A    between atoms: _886  and  _888
REMARK  355  A    between atoms: _888  and  _889
REMARK  356  A    between atoms: _888  and  _891
REMARK  357  A    between atoms: _891  and  _892
REMARK  358  A    between atoms: _895  and  _897
REMARK  359  A    between atoms: _897  and  _898
REMARK  360  A    between atoms: _897  and  _900
REMARK  361  A    between atoms: _900  and  _901
REMARK  362  A    between atoms: _903  and  _905
REMARK  363  A    between atoms: _905  and  _906
REMARK  364  A    between atoms: _905  and  _908
REMARK  365  A    between atoms: _908  and  _909
REMARK  366  A    between atoms: _911  and  _913
REMARK  367  A    between atoms: _913  and  _914
REMARK  368  A    between atoms: _913  and  _916
REMARK  369  A    between atoms: _916  and  _917
REMARK  370  A    between atoms: _923  and  _925
REMARK  371  A    between atoms: _925  and  _926
REMARK  372  A    between atoms: _925  and  _928
REMARK  373  A    between atoms: _928  and  _929
REMARK  374  A    between atoms: _929  and  _930
REMARK  375  A    between atoms: _930  and  _931
REMARK  376  A    between atoms: _940  and  _942
REMARK  377  A    between atoms: _942  and  _943
REMARK  378  A    between atoms: _942  and  _945
REMARK  379  A    between atoms: _945  and  _946
REMARK  380  A    between atoms: _946  and  _947
REMARK  381  A    between atoms: _947  and  _948
REMARK  382  A    between atoms: _957  and  _959
REMARK  383  A    between atoms: _959  and  _960
REMARK  384  A    between atoms: _962  and  _964
REMARK  385  A    between atoms: _964  and  _965
REMARK  386  A    between atoms: _964  and  _967
REMARK  387  A    between atoms: _967  and  _968
REMARK  388  A    between atoms: _974  and  _975
REMARK  389  A    between atoms: _980  and  _982
REMARK  390  A    between atoms: _982  and  _983
REMARK  391  A    between atoms: _982  and  _985
REMARK  392  A    between atoms: _985  and  _986
REMARK  393  A    between atoms: _996  and  _998
REMARK  394  A    between atoms: _998  and  _999
REMARK  395  A    between atoms: _998  and  _1001
REMARK  396  A    between atoms: _1001  and  _1002
REMARK  397  A    between atoms: _1002  and  _1003
REMARK  398  A    between atoms: _1003  and  _1004
REMARK  399  A    between atoms: _1013  and  _1015
REMARK  400  A    between atoms: _1015  and  _1016
REMARK  401  A    between atoms: _1015  and  _1018
REMARK  402  A    between atoms: _1018  and  _1019
REMARK  403  A    between atoms: _1021  and  _1023
REMARK  404  A    between atoms: _1023  and  _1024
REMARK  405  A    between atoms: _1027  and  _1029
REMARK  406  A    between atoms: _1029  and  _1030
REMARK  407  A    between atoms: _1029  and  _1032
REMARK  408  A    between atoms: _1032  and  _1033
REMARK  409  A    between atoms: _1036  and  _1038
REMARK  410  A    between atoms: _1038  and  _1039
REMARK  411  A    between atoms: _1038  and  _1041
REMARK  412  A    between atoms: _1041  and  _1042
REMARK  413  A    between atoms: _1042  and  _1043
REMARK  414  A    between atoms: _1043  and  _1044
REMARK  415  A    between atoms: _1053  and  _1055
REMARK  416  A    between atoms: _1055  and  _1056
REMARK  417  A    between atoms: _1055  and  _1058
REMARK  418  A    between atoms: _1061  and  _1063
REMARK  419  A    between atoms: _1063  and  _1064
REMARK  420  A    between atoms: _1066  and  _1068
REMARK  421  A    between atoms: _1068  and  _1069
REMARK  422  A    between atoms: _1068  and  _1071
REMARK  423  A    between atoms: _1071  and  _1072
REMARK                            x       y       z     vdW  Elec       q    Type
REMARK                         _______ _______ _______ _____ _____    ______ ____
ROOT
ATOM      1  CA  TRP A   2      14.782  21.754  58.802  0.00  0.00    +0.141 C 
ENDROOT
BRANCH   1   3
ATOM      2  C   PRO A   1      12.611  20.753  58.353  0.00  0.00    +0.239 C 
ATOM      3  N   TRP A   2      13.300  21.757  58.835  0.00  0.00    -0.298 N 
ATOM      4  H   TRP A   2      12.799  22.570  59.248  0.00  0.00    +0.150 HD
ATOM      5  O   PRO A   1      13.189  19.791  57.790  0.00  0.00    -0.274 OA
BRANCH   2   7
ATOM      6  N   PRO A   1      10.519  21.899  59.219  0.00  0.00    -0.210 NA
ATOM      7  CA  PRO A   1      11.119  20.822  58.465  0.00  0.00    +0.149 C 
ATOM      8  CB  PRO A   1      10.482  20.923  57.050  0.00  0.00    +0.028 C 
ATOM      9  CG  PRO A   1      10.274  22.423  56.960  0.00  0.00    +0.021 C 
ATOM     10  CD  PRO A   1       9.916  22.911  58.346  0.00  0.00    +0.089 C 
ENDBRANCH   2   7
ENDBRANCH   1   3
BRANCH   1  11
ATOM     11  C   TRP A   2      15.204  21.062  60.098  0.00  0.00    +0.227 C 
ATOM     12  O   TRP A   2      14.959  21.511  61.229  0.00  0.00    -0.286 OA
ENDBRANCH   1  11
BRANCH   1  13
ATOM     13  CB  TRP A   2      15.249  23.209  58.685  0.00  0.00    +0.056 C 
BRANCH  13  14
ATOM     14  CG  TRP A   2      15.039  23.748  57.294  0.00  0.00    -0.002 A 
ATOM     15  CD1 TRP A   2      13.892  24.291  56.786  0.00  0.00    +0.068 A 
ATOM     16  NE1 TRP A   2      14.065  24.622  55.470  0.00  0.00    -0.352 N 
ATOM     17  CE2 TRP A   2      15.344  24.276  55.099  0.00  0.00    +0.056 A 
ATOM     18  CZ2 TRP A   2      15.986  24.423  53.876  0.00  0.00    +0.017 A 
ATOM     19  CH2 TRP A   2      17.274  23.976  53.784  0.00  0.00    +0.001 A 
ATOM     20  CZ3 TRP A   2      17.936  23.426  54.895  0.00  0.00    +0.000 A 
ATOM     21  CE3 TRP A   2      17.300  23.277  56.104  0.00  0.00    +0.001 A 
ATOM     22  HE1 TRP A   2      13.351  25.061  54.854  0.00  0.00    +0.166 HD
ATOM     23  CD2 TRP A   2      15.977  23.716  56.215  0.00  0.00    +0.013 A 
ENDBRANCH  13  14
ENDBRANCH   1  13
TORSDOF 5
REMARK  Name = ../refined-set-2016/1fo0/1fo0_pocket.pdb
REMARK  423 active torsions:
REMARK  status: ('A' for Active; 'I' for Inactive)
REMARK    1  A    between atoms: _1  and  _3
REMARK    2  A    between atoms: _3  and  _4
REMARK    3  A    between atoms: _3  and  _6
REMARK    4  A    between atoms: _6  and  _7
REMARK    5  A    between atoms: _10  and  _12
REMARK    6  A    between atoms: _12  and  _13
REMARK    7  A    between atoms: _12  and  _15
REMARK    8  A    between atoms: _15  and  _16
REMARK    9  A    between atoms: _16  and  _17
REMARK   10  A    between atoms: _17  and  _18
REMARK   11  A    between atoms: _27  and  _29
REMARK   12  A    between atoms: _29  and  _30
REMARK   13  A    between atoms: _29  and  _32
REMARK   14  A    between atoms: _32  and  _33
REMARK   15  A    between atoms: _38  and  _39
REMARK   16  A    between atoms: _41  and  _43
REMARK   17  A    between atoms: _43  and  _44
REMARK   18  A    between atoms: _43  and  _46
REMARK   19  A    between atoms: _46  and  _47
REMARK   20  A    between atoms: _53  and  _55
REMARK   21  A    between atoms: _55  and  _56
REMARK   22  A    between atoms: _55  and  _58
REMARK   23  A    between atoms: _61  and  _63
REMARK   24  A    between atoms: _63  and  _64
REMARK   25  A    between atoms: _63  and  _66
REMARK   26  A    between atoms: _66  and  _67
REMARK   27  A    between atoms: _70  and  _72
REMARK   28  A    between atoms: _72  and  _73
REMARK   29  A    between atoms: _72  and  _75
REMARK   30  A    between atoms: _75  and  _76
REMARK   31  A    between atoms: _81  and  _82
REMARK   32  A    between atoms: _84  and  _86
REMARK   33  A    between atoms: _86  and  _87
REMARK   34  A    between atoms: _86  and  _89
REMARK   35  A    between atoms: _89  and  _90
REMARK   36  A    between atoms: _90  and  _91
REMARK   37  A    between atoms: _93  and  _95
REMARK   38  A    between atoms: _95  and  _96
REMARK   39  A    between atoms: _95  and  _98
REMARK   40  A    between atoms: _98  and  _99
REMARK   41  A    between atoms: _99  and  _100
REMARK   42  A    between atoms: _103  and  _105
REMARK   43  A    between atoms: _105  and  _106
REMARK   44  A    between atoms: _105  and  _108
REMARK   45  A    between atoms: _111  and  _113
REMARK   46  A    between atoms: _113  and  _114
REMARK   47  A    between atoms: _116  and  _118
REMARK   48  A    between atoms: _118  and  _119
REMARK   49  A    between atoms: _118  and  _121
REMARK   50  A    between atoms: _121  and  _122
REMARK   51  A    between atoms: _128  and  _130
REMARK   52  A    between atoms: _130  and  _131
REMARK   53  A    between atoms: _130  and  _133
REMARK   54  A    between atoms: _136  and  _138
REMARK   55  A    between atoms: _138  and  _139
REMARK   56  A    between atoms: _138  and  _141
REMARK   57  A    between atoms: _141  and  _142
REMARK   58  A    between atoms: _148  and  _150
REMARK   59  A    between atoms: _150  and  _151
REMARK   60  A    between atoms: _150  and  _153
REMARK   61  A    between atoms: _153  and  _154
REMARK   62  A    between atoms: _159  and  _160
REMARK   63  A    between atoms: _162  and  _164
REMARK   64  A    between atoms: _164  and  _165
REMARK   65  A    between atoms: _164  and  _167
REMARK   66  A    between atoms: _167  and  _168
REMARK   67  A    between atoms: _168  and  _169
REMARK   68  A    between atoms: _171  and  _173
REMARK   69  A    between atoms: _173  and  _174
REMARK   70  A    between atoms: _173  and  _176
REMARK   71  A    between atoms: _176  and  _177
REMARK   72  A    between atoms: _177  and  _178
REMARK   73  A    between atoms: _181  and  _183
REMARK   74  A    between atoms: _183  and  _184
REMARK   75  A    between atoms: _183  and  _186
REMARK   76  A    between atoms: _186  and  _187
REMARK   77  A    between atoms: _192  and  _193
REMARK   78  A    between atoms: _195  and  _197
REMARK   79  A    between atoms: _197  and  _198
REMARK   80  A    between atoms: _197  and  _200
REMARK   81  A    between atoms: _200  and  _201
REMARK   82  A    between atoms: _201  and  _202
REMARK   83  A    between atoms: _202  and  _203
REMARK   84  A    between atoms: _212  and  _214
REMARK   85  A    between atoms: _214  and  _215
REMARK   86  A    between atoms: _214  and  _217
REMARK   87  A    between atoms: _217  and  _218
REMARK   88  A    between atoms: _218  and  _219
REMARK   89  A    between atoms: _222  and  _224
REMARK   90  A    between atoms: _224  and  _225
REMARK   91  A    between atoms: _224  and  _227
REMARK   92  A    between atoms: _227  and  _228
REMARK   93  A    between atoms: _228  and  _229
REMARK   94  A    between atoms: _234  and  _236
REMARK   95  A    between atoms: _236  and  _237
REMARK   96  A    between atoms: _236  and  _239
REMARK   97  A    between atoms: _239  and  _240
REMARK   98  A    between atoms: _240  and  _241
REMARK   99  A    between atoms: _241  and  _242
REMARK  100  A    between atoms: _242  and  _243
REMARK  101  A    between atoms: _247  and  _249
REMARK  102  A    between atoms: _249  and  _250
REMARK  103  A    between atoms: _253  and  _255
REMARK  104  A    between atoms: _255  and  _256
REMARK  105  A    between atoms: _255  and  _258
REMARK  106  A    between atoms: _258  and  _259
REMARK  107  A    between atoms: _259  and  _260
REMARK  108  A    between atoms: _260  and  _261
REMARK  109  A    between atoms: _261  and  _262
REMARK  110  A    between atoms: _266  and  _268
REMARK  111  A    between atoms: _268  and  _269
REMARK  112  A    between atoms: _271  and  _273
REMARK  113  A    between atoms: _273  and  _274
REMARK  114  A    between atoms: _273  and  _276
REMARK  115  A    between atoms: _276  and  _277
REMARK  116  A    between atoms: _282  and  _284
REMARK  117  A    between atoms: _284  and  _285
REMARK  118  A    between atoms: _284  and  _287
REMARK  119  A    between atoms: _287  and  _288
REMARK  120  A    between atoms: _288  and  _289
REMARK  121  A    between atoms: _292  and  _294
REMARK  122  A    between atoms: _294  and  _295
REMARK  123  A    between atoms: _294  and  _297
REMARK  124  A    between atoms: _297  and  _298
REMARK  125  A    between atoms: _298  and  _299
REMARK  126  A    between atoms: _304  and  _306
REMARK  127  A    between atoms: _306  and  _307
REMARK  128  A    between atoms: _306  and  _309
REMARK  129  A    between atoms: _309  and  _310
REMARK  130  A    between atoms: _312  and  _314
REMARK  131  A    between atoms: _314  and  _315
REMARK  132  A    between atoms: _314  and  _317
REMARK  133  A    between atoms: _317  and  _318
REMARK  134  A    between atoms: _324  and  _326
REMARK  135  A    between atoms: _326  and  _327
REMARK  136  A    between atoms: _326  and  _329
REMARK  137  A    between atoms: _329  and  _330
REMARK  138  A    between atoms: _330  and  _331
REMARK  139  A    between atoms: _331  and  _332
REMARK  140  A    between atoms: _341  and  _343
REMARK  141  A    between atoms: _343  and  _344
REMARK  142  A    between atoms: _343  and  _346
REMARK  143  A    between atoms: _349  and  _351
REMARK  144  A    between atoms: _351  and  _352
REMARK  145  A    between atoms: _351  and  _354
REMARK  146  A    between atoms: _354  and  _355
REMARK  147  A    between atoms: _358  and  _360
REMARK  148  A    between atoms: _360  and  _361
REMARK  149  A    between atoms: _360  and  _363
REMARK  150  A    between atoms: _363  and  _364
REMARK  151  A    between atoms: _367  and  _369
REMARK  152  A    between atoms: _369  and  _370
REMARK  153  A    between atoms: _369  and  _372
REMARK  154  A    between atoms: _372  and  _373
REMARK  155  A    between atoms: _373  and  _374
REMARK  156  A    between atoms: _374  and  _375
REMARK  157  A    between atoms: _384  and  _386
REMARK  158  A    between atoms: _386  and  _387
REMARK  159  A    between atoms: _386  and  _389
REMARK  160  A    between atoms: _389  and  _390
REMARK  161  A    between atoms: _393  and  _395
REMARK  162  A    between atoms: _395  and  _396
REMARK  163  A    between atoms: _395  and  _398
REMARK  164  A    between atoms: _398  and  _399
REMARK  165  A    between atoms: _402  and  _404
REMARK  166  A    between atoms: _404  and  _405
REMARK  167  A    between atoms: _404  and  _407
REMARK  168  A    between atoms: _407  and  _408
REMARK  169  A    between atoms: _411  and  _413
REMARK  170  A    between atoms: _413  and  _414
REMARK  171  A    between atoms: _413  and  _416
REMARK  172  A    between atoms: _416  and  _417
REMARK  173  A    between atoms: _422  and  _423
REMARK  174  A    between atoms: _425  and  _427
REMARK  175  A    between atoms: _427  and  _428
REMARK  176  A    between atoms: _427  and  _430
REMARK  177  A    between atoms: _430  and  _431
REMARK  178  A    between atoms: _436  and  _437
REMARK  179  A    between atoms: _439  and  _441
REMARK  180  A    between atoms: _441  and  _442
REMARK  181  A    between atoms: _441  and  _444
REMARK  182  A    between atoms: _444  and  _445
REMARK  183  A    between atoms: _448  and  _450
REMARK  184  A    between atoms: _450  and  _451
REMARK  185  A    between atoms: _450  and  _453
REMARK  186  A    between atoms: _456  and  _458
REMARK  187  A    between atoms: _458  and  _459
REMARK  188  A    between atoms: _458  and  _461
REMARK  189  A    between atoms: _461  and  _462
REMARK  190  A    between atoms: _465  and  _467
REMARK  191  A    between atoms: _467  and  _468
REMARK  192  A    between atoms: _467  and  _470
REMARK  193  A    between atoms: _470  and  _471
REMARK  194  A    between atoms: _473  and  _475
REMARK  195  A    between atoms: _475  and  _476
REMARK  196  A    between atoms: _478  and  _480
REMARK  197  A    between atoms: _480  and  _481
REMARK  198  A    between atoms: _480  and  _483
REMARK  199  A    between atoms: _483  and  _484
REMARK  200  A    between atoms: _489  and  _490
REMARK  201  A    between atoms: _492  and  _494
REMARK  202  A    between atoms: _494  and  _495
REMARK  203  A    between atoms: _494  and  _497
REMARK  204  A    between atoms: _497  and  _498
REMARK  205  A    between atoms: _498  and  _499
REMARK  206  A    between atoms: _504  and  _506
REMARK  207  A    between atoms: _506  and  _507
REMARK  208  A    between atoms: _506  and  _509
REMARK  209  A    between atoms: _509  and  _510
REMARK  210  A    between atoms: _510  and  _511
REMARK  211  A    between atoms: _516  and  _518
REMARK  212  A    between atoms: _518  and  _519
REMARK  213  A    between atoms: _518  and  _521
REMARK  214  A    between atoms: _521  and  _522
REMARK  215  A    between atoms: _527  and  _528
REMARK  216  A    between atoms: _530  and  _532
REMARK  217  A    between atoms: _532  and  _533
REMARK  218  A    between atoms: _532  and  _535
REMARK  219  A    between atoms: _535  and  _536
REMARK  220  A    between atoms: _541  and  _542
REMARK  221  A    between atoms: _544  and  _546
REMARK  222  A    between atoms: _546  and  _547
REMARK  223  A    between atoms: _546  and  _549
REMARK  224  A    between atoms: _549  and  _550
REMARK  225  A    between atoms: _555  and  _556
REMARK  226  A    between atoms: _558  and  _560
REMARK  227  A    between atoms: _560  and  _561
REMARK  228  A    between atoms: _560  and  _563
REMARK  229  A    between atoms: _563  and  _564
REMARK  230  A    between atoms: _567  and  _569
REMARK  231  A    between atoms: _569  and  _570
REMARK  232  A    between atoms: _569  and  _572
REMARK  233  A    between atoms: _572  and  _573
REMARK  234  A    between atoms: _583  and  _585
REMARK  235  A    between atoms: _585  and  _586
REMARK  236  A    between atoms: _589  and  _591
REMARK  237  A    between atoms: _591  and  _592
REMARK  238  A    between atoms: _595  and  _597
REMARK  239  A    between atoms: _597  and  _598
REMARK  240  A    between atoms: _597  and  _600
REMARK  241  A    between atoms: _600  and  _601
REMARK  242  A    between atoms: _604  and  _606
REMARK  243  A    between atoms: _606  and  _607
REMARK  244  A    between atoms: _606  and  _609
REMARK  245  A    between atoms: _609  and  _610
REMARK  246  A    between atoms: _613  and  _615
REMARK  247  A    between atoms: _615  and  _616
REMARK  248  A    between atoms: _615  and  _618
REMARK  249  A    between atoms: _618  and  _619
REMARK  250  A    between atoms: _622  and  _624
REMARK  251  A    between atoms: _624  and  _625
REMARK  252  A    between atoms: _624  and  _627
REMARK  253  A    between atoms: _627  and  _628
REMARK  254  A    between atoms: _628  and  _629
REMARK  255  A    between atoms: _629  and  _630
REMARK  256  A    between atoms: _630  and  _631
REMARK  257  A    between atoms: _635  and  _637
REMARK  258  A    between atoms: _637  and  _638
REMARK  259  A    between atoms: _637  and  _640
REMARK  260  A    between atoms: _640  and  _641
REMARK  261  A    between atoms: _646  and  _648
REMARK  262  A    between atoms: _648  and  _649
REMARK  263  A    between atoms: _648  and  _651
REMARK  264  A    between atoms: _651  and  _652
REMARK  265  A    between atoms: _652  and  _653
REMARK  266  A    between atoms: _653  and  _654
REMARK  267  A    between atoms: _654  and  _655
REMARK  268  A    between atoms: _659  and  _661
REMARK  269  A    between atoms: _661  and  _662
REMARK  270  A    between atoms: _661  and  _664
REMARK  271  A    between atoms: _664  and  _665
REMARK  272  A    between atoms: _675  and  _677
REMARK  273  A    between atoms: _677  and  _678
REMARK  274  A    between atoms: _681  and  _683
REMARK  275  A    between atoms: _683  and  _684
REMARK  276  A    between atoms: _686  and  _688
REMARK  277  A    between atoms: _688  and  _689
REMARK  278  A    between atoms: _688  and  _691
REMARK  279  A    between atoms: _691  and  _692
REMARK  280  A    between atoms: _692  and  _693
REMARK  281  A    between atoms: _696  and  _698
REMARK  282  A    between atoms: _698  and  _699
REMARK  283  A    between atoms: _702  and  _704
REMARK  284  A    between atoms: _704  and  _705
REMARK  285  A    between atoms: _704  and  _707
REMARK  286  A    between atoms: _707  and  _708
REMARK  287  A    between atoms: _708  and  _709
REMARK  288  A    between atoms: _712  and  _714
REMARK  289  A    between atoms: _714  and  _715
REMARK  290  A    between atoms: _714  and  _717
REMARK  291  A    between atoms: _717  and  _718
REMARK  292  A    between atoms: _718  and  _719
REMARK  293  A    between atoms: _719  and  _720
REMARK  294  A    between atoms: _729  and  _731
REMARK  295  A    between atoms: _731  and  _732
REMARK  296  A    between atoms: _731  and  _734
REMARK  297  A    between atoms: _734  and  _735
REMARK  298  A    between atoms: _738  and  _740
REMARK  299  A    between atoms: _740  and  _741
REMARK  300  A    between atoms: _740  and  _743
REMARK  301  A    between atoms: _743  and  _744
REMARK  302  A    between atoms: _744  and  _745
REMARK  303  A    between atoms: _745  and  _746
REMARK  304  A    between atoms: _755  and  _757
REMARK  305  A    between atoms: _757  and  _758
REMARK  306  A    between atoms: _761  and  _763
REMARK  307  A    between atoms: _763  and  _764
REMARK  308  A    between atoms: _763  and  _766
REMARK  309  A    between atoms: _766  and  _767
REMARK  310  A    between atoms: _772  and  _773
REMARK  311  A    between atoms: _775  and  _777
REMARK  312  A    between atoms: _777  and  _778
REMARK  313  A    between atoms: _777  and  _780
REMARK  314  A    between atoms: _780  and  _781
REMARK  315  A    between atoms: _784  and  _786
REMARK  316  A    between atoms: _786  and  _787
REMARK  317  A    between atoms: _786  and  _789
REMARK  318  A    between atoms: _789  and  _790
REMARK  319  A    between atoms: _793  and  _795
REMARK  320  A    between atoms: _795  and  _796
REMARK  321  A    between atoms: _795  and  _798
REMARK  322  A    between atoms: _800  and  _802
REMARK  323  A    between atoms: _802  and  _803
REMARK  324  A    between atoms: _802  and  _805
REMARK  325  A    between atoms: _808  and  _810
REMARK  326  A    between atoms: _810  and  _811
REMARK  327  A    between atoms: _810  and  _813
REMARK  328  A    between atoms: _813  and  _814
REMARK  329  A    between atoms: _814  and  _815
REMARK  330  A    between atoms: _818  and  _820
REMARK  331  A    between atoms: _820  and  _821
REMARK  332  A    between atoms: _820  and  _823
REMARK  333  A    between atoms: _823  and  _824
REMARK  334  A    between atoms: _834  and  _836
REMARK  335  A    between atoms: _836  and  _837
REMARK  336  A    between atoms: _836  and  _839
REMARK  337  A    between atoms: _839  and  _840
REMARK  338  A    between atoms: _843  and  _845
REMARK  339  A    between atoms: _845  and  _846
REMARK  340  A    between atoms: _845  and  _848
REMARK  341  A    between atoms: _848  and  _849
REMARK  342  A    between atoms: _849  and  _850
REMARK  343  A    between atoms: _850  and  _851
REMARK  344  A    between atoms: _860  and  _862
REMARK  345  A    between atoms: _862  and  _863
REMARK  346  A    between atoms: _862  and  _865
REMARK  347  A    between atoms: _865  and  _866
REMARK  348  A    between atoms: _871  and  _872
REMARK  349  A    between atoms: _874  and  _876
REMARK  350  A    between atoms: _876  and  _877
REMARK  351  A    between atoms: _876  and  _879
REMARK  352  A    between atoms: _879  and  _880
REMARK  353  A    between atoms: _880  and  _881
REMARK  354  A    between atoms: _886  and  _888
REMARK  355  A    between atoms: _888  and  _889
REMARK  356  A    between atoms: _888  and  _891
REMARK  357  A    between atoms: _891  and  _892
REMARK  358  A    between atoms: _895  and  _897
REMARK  359  A    between atoms: _897  and  _898
REMARK  360  A    between atoms: _897  and  _900
REMARK  361  A    between atoms: _900  and  _901
REMARK  362  A    between atoms: _903  and  _905
REMARK  363  A    between atoms: _905  and  _906
REMARK  364  A    between atoms: _905  and  _908
REMARK  365  A    between atoms: _908  and  _909
REMARK  366  A    between atoms: _911  and  _913
REMARK  367  A    between atoms: _913  and  _914
REMARK  368  A    between atoms: _913  and  _916
REMARK  369  A    between atoms: _916  and  _917
REMARK  370  A    between atoms: _923  and  _925
REMARK  371  A    between atoms: _925  and  _926
REMARK  372  A    between atoms: _925  and  _928
REMARK  373  A    between atoms: _928  and  _929
REMARK  374  A    between atoms: _929  and  _930
REMARK  375  A    between atoms: _930  and  _931
REMARK  376  A    between atoms: _940  and  _942
REMARK  377  A    between atoms: _942  and  _943
REMARK  378  A    between atoms: _942  and  _945
REMARK  379  A    between atoms: _945  and  _946
REMARK  380  A    between atoms: _946  and  _947
REMARK  381  A    between atoms: _947  and  _948
REMARK  382  A    between atoms: _957  and  _959
REMARK  383  A    between atoms: _959  and  _960
REMARK  384  A    between atoms: _962  and  _964
REMARK  385  A    between atoms: _964  and  _965
REMARK  386  A    between atoms: _964  and  _967
REMARK  387  A    between atoms: _967  and  _968
REMARK  388  A    between atoms: _974  and  _975
REMARK  389  A    between atoms: _980  and  _982
REMARK  390  A    between atoms: _982  and  _983
REMARK  391  A    between atoms: _982  and  _985
REMARK  392  A    between atoms: _985  and  _986
REMARK  393  A    between atoms: _996  and  _998
REMARK  394  A    between atoms: _998  and  _999
REMARK  395  A    between atoms: _998  and  _1001
REMARK  396  A    between atoms: _1001  and  _1002
REMARK  397  A    between atoms: _1002  and  _1003
REMARK  398  A    between atoms: _1003  and  _1004
REMARK  399  A    between atoms: _1013  and  _1015
REMARK  400  A    between atoms: _1015  and  _1016
REMARK  401  A    between atoms: _1015  and  _1018
REMARK  402  A    between atoms: _1018  and  _1019
REMARK  403  A    between atoms: _1021  and  _1023
REMARK  404  A    between atoms: _1023  and  _1024
REMARK  405  A    between atoms: _1027  and  _1029
REMARK  406  A    between atoms: _1029  and  _1030
REMARK  407  A    between atoms: _1029  and  _1032
REMARK  408  A    between atoms: _1032  and  _1033
REMARK  409  A    between atoms: _1036  and  _1038
REMARK  410  A    between atoms: _1038  and  _1039
REMARK  411  A    between atoms: _1038  and  _1041
REMARK  412  A    between atoms: _1041  and  _1042
REMARK  413  A    between atoms: _1042  and  _1043
REMARK  414  A    between atoms: _1043  and  _1044
REMARK  415  A    between atoms: _1053  and  _1055
REMARK  416  A    between atoms: _1055  and  _1056
REMARK  417  A    between atoms: _1055  and  _1058
REMARK  418  A    between atoms: _1061  and  _1063
REMARK  419  A    between atoms: _1063  and  _1064
REMARK  420  A    between atoms: _1066  and  _1068
REMARK  421  A    between atoms: _1068  and  _1069
REMARK  422  A    between atoms: _1068  and  _1071
REMARK  423  A    between atoms: _1071  and  _1072
REMARK                            x       y       z     vdW  Elec       q    Type
REMARK                         _______ _______ _______ _____ _____    ______ ____
ROOT
ATOM      1  NE  ARG A   1      12.839  21.661  54.457  0.00  0.00    -0.265 N 
ATOM      2  HE  ARG A   1      12.663  22.685  54.511  0.00  0.00    +0.259 HD
ATOM      3  CZ  ARG A   1      11.885  20.885  53.948  0.00  0.00    +0.342 C 
ATOM      4  NH2 ARG A   1      12.028  19.565  53.879  0.00  0.00    -0.292 N 
ATOM      5 HH21 ARG A   1      12.900  19.117  54.227  0.00  0.00    +0.255 HD
ATOM      6 HH22 ARG A   1      11.268  18.980  53.477  0.00  0.00    +0.255 HD
ATOM      7  NH1 ARG A   1      10.770  21.453  53.528  0.00  0.00    -0.292 N 
ATOM      8 HH11 ARG A   1      10.653  22.484  53.599  0.00  0.00    +0.255 HD
ATOM      9 HH12 ARG A   1      10.009  20.870  53.126  0.00  0.00    +0.255 HD
ENDROOT
BRANCH   1  10
ATOM     10  CD  ARG A   1      14.115  21.156  54.942  0.00  0.00    +0.174 C 
BRANCH  10  11
ATOM     11  CG  ARG A   1      14.989  20.721  53.771  0.00  0.00    +0.045 C 
BRANCH  11  12
ATOM     12  CB  ARG A   1      16.286  20.130  54.267  0.00  0.00    +0.029 C 
BRANCH  12  13
ATOM     13  CA  ARG A   1      16.133  18.776  55.032  0.00  0.00    +0.133 C 
BRANCH  13  14
ATOM     14  N   ARG A   1      17.495  18.359  55.254  0.00  0.00    -0.239 NA
ATOM     15  H   ARG A   1      18.234  18.697  54.605  0.00  0.00    +0.142 HD
ENDBRANCH  13  14
BRANCH  13  16
ATOM     16  C   ARG A   1      15.283  17.853  54.195  0.00  0.00    +0.224 C 
ATOM     17  O   ARG A   1      14.064  17.775  54.367  0.00  0.00    -0.287 OA
ENDBRANCH  13  16
ENDBRANCH  12  13
ENDBRANCH  11  12
ENDBRANCH  10  11
ENDBRANCH   1  10
TORSDOF 6
REMARK  Name = ../refined-set-2016/1fo0/1fo0_pocket.pdb
REMARK  423 active torsions:
REMARK  status: ('A' for Active; 'I' for Inactive)
REMARK    1  A    between atoms: _1  and  _3
REMARK    2  A    between atoms: _3  and  _4
REMARK    3  A    between atoms: _3  and  _6
REMARK    4  A    between atoms: _6  and  _7
REMARK    5  A    between atoms: _10  and  _12
REMARK    6  A    between atoms: _12  and  _13
REMARK    7  A    between atoms: _12  and  _15
REMARK    8  A    between atoms: _15  and  _16
REMARK    9  A    between atoms: _16  and  _17
REMARK   10  A    between atoms: _17  and  _18
REMARK   11  A    between atoms: _27  and  _29
REMARK   12  A    between atoms: _29  and  _30
REMARK   13  A    between atoms: _29  and  _32
REMARK   14  A    between atoms: _32  and  _33
REMARK   15  A    between atoms: _38  and  _39
REMARK   16  A    between atoms: _41  and  _43
REMARK   17  A    between atoms: _43  and  _44
REMARK   18  A    between atoms: _43  and  _46
REMARK   19  A    between atoms: _46  and  _47
REMARK   20  A    between atoms: _53  and  _55
REMARK   21  A    between atoms: _55  and  _56
REMARK   22  A    between atoms: _55  and  _58
REMARK   23  A    between atoms: _61  and  _63
REMARK   24  A    between atoms: _63  and  _64
REMARK   25  A    between atoms: _63  and  _66
REMARK   26  A    between atoms: _66  and  _67
REMARK   27  A    between atoms: _70  and  _72
REMARK   28  A    between atoms: _72  and  _73
REMARK   29  A    between atoms: _72  and  _75
REMARK   30  A    between atoms: _75  and  _76
REMARK   31  A    between atoms: _81  and  _82
REMARK   32  A    between atoms: _84  and  _86
REMARK   33  A    between atoms: _86  and  _87
REMARK   34  A    between atoms: _86  and  _89
REMARK   35  A    between atoms: _89  and  _90
REMARK   36  A    between atoms: _90  and  _91
REMARK   37  A    between atoms: _93  and  _95
REMARK   38  A    between atoms: _95  and  _96
REMARK   39  A    between atoms: _95  and  _98
REMARK   40  A    between atoms: _98  and  _99
REMARK   41  A    between atoms: _99  and  _100
REMARK   42  A    between atoms: _103  and  _105
REMARK   43  A    between atoms: _105  and  _106
REMARK   44  A    between atoms: _105  and  _108
REMARK   45  A    between atoms: _111  and  _113
REMARK   46  A    between atoms: _113  and  _114
REMARK   47  A    between atoms: _116  and  _118
REMARK   48  A    between atoms: _118  and  _119
REMARK   49  A    between atoms: _118  and  _121
REMARK   50  A    between atoms: _121  and  _122
REMARK   51  A    between atoms: _128  and  _130
REMARK   52  A    between atoms: _130  and  _131
REMARK   53  A    between atoms: _130  and  _133
REMARK   54  A    between atoms: _136  and  _138
REMARK   55  A    between atoms: _138  and  _139
REMARK   56  A    between atoms: _138  and  _141
REMARK   57  A    between atoms: _141  and  _142
REMARK   58  A    between atoms: _148  and  _150
REMARK   59  A    between atoms: _150  and  _151
REMARK   60  A    between atoms: _150  and  _153
REMARK   61  A    between atoms: _153  and  _154
REMARK   62  A    between atoms: _159  and  _160
REMARK   63  A    between atoms: _162  and  _164
REMARK   64  A    between atoms: _164  and  _165
REMARK   65  A    between atoms: _164  and  _167
REMARK   66  A    between atoms: _167  and  _168
REMARK   67  A    between atoms: _168  and  _169
REMARK   68  A    between atoms: _171  and  _173
REMARK   69  A    between atoms: _173  and  _174
REMARK   70  A    between atoms: _173  and  _176
REMARK   71  A    between atoms: _176  and  _177
REMARK   72  A    between atoms: _177  and  _178
REMARK   73  A    between atoms: _181  and  _183
REMARK   74  A    between atoms: _183  and  _184
REMARK   75  A    between atoms: _183  and  _186
REMARK   76  A    between atoms: _186  and  _187
REMARK   77  A    between atoms: _192  and  _193
REMARK   78  A    between atoms: _195  and  _197
REMARK   79  A    between atoms: _197  and  _198
REMARK   80  A    between atoms: _197  and  _200
REMARK   81  A    between atoms: _200  and  _201
REMARK   82  A    between atoms: _201  and  _202
REMARK   83  A    between atoms: _202  and  _203
REMARK   84  A    between atoms: _212  and  _214
REMARK   85  A    between atoms: _214  and  _215
REMARK   86  A    between atoms: _214  and  _217
REMARK   87  A    between atoms: _217  and  _218
REMARK   88  A    between atoms: _218  and  _219
REMARK   89  A    between atoms: _222  and  _224
REMARK   90  A    between atoms: _224  and  _225
REMARK   91  A    between atoms: _224  and  _227
REMARK   92  A    between atoms: _227  and  _228
REMARK   93  A    between atoms: _228  and  _229
REMARK   94  A    between atoms: _234  and  _236
REMARK   95  A    between atoms: _236  and  _237
REMARK   96  A    between atoms: _236  and  _239
REMARK   97  A    between atoms: _239  and  _240
REMARK   98  A    between atoms: _240  and  _241
REMARK   99  A    between atoms: _241  and  _242
REMARK  100  A    between atoms: _242  and  _243
REMARK  101  A    between atoms: _247  and  _249
REMARK  102  A    between atoms: _249  and  _250
REMARK  103  A    between atoms: _253  and  _255
REMARK  104  A    between atoms: _255  and  _256
REMARK  105  A    between atoms: _255  and  _258
REMARK  106  A    between atoms: _258  and  _259
REMARK  107  A    between atoms: _259  and  _260
REMARK  108  A    between atoms: _260  and  _261
REMARK  109  A    between atoms: _261  and  _262
REMARK  110  A    between atoms: _266  and  _268
REMARK  111  A    between atoms: _268  and  _269
REMARK  112  A    between atoms: _271  and  _273
REMARK  113  A    between atoms: _273  and  _274
REMARK  114  A    between atoms: _273  and  _276
REMARK  115  A    between atoms: _276  and  _277
REMARK  116  A    between atoms: _282  and  _284
REMARK  117  A    between atoms: _284  and  _285
REMARK  118  A    between atoms: _284  and  _287
REMARK  119  A    between atoms: _287  and  _288
REMARK  120  A    between atoms: _288  and  _289
REMARK  121  A    between atoms: _292  and  _294
REMARK  122  A    between atoms: _294  and  _295
REMARK  123  A    between atoms: _294  and  _297
REMARK  124  A    between atoms: _297  and  _298
REMARK  125  A    between atoms: _298  and  _299
REMARK  126  A    between atoms: _304  and  _306
REMARK  127  A    between atoms: _306  and  _307
REMARK  128  A    between atoms: _306  and  _309
REMARK  129  A    between atoms: _309  and  _310
REMARK  130  A    between atoms: _312  and  _314
REMARK  131  A    between atoms: _314  and  _315
REMARK  132  A    between atoms: _314  and  _317
REMARK  133  A    between atoms: _317  and  _318
REMARK  134  A    between atoms: _324  and  _326
REMARK  135  A    between atoms: _326  and  _327
REMARK  136  A    between atoms: _326  and  _329
REMARK  137  A    between atoms: _329  and  _330
REMARK  138  A    between atoms: _330  and  _331
REMARK  139  A    between atoms: _331  and  _332
REMARK  140  A    between atoms: _341  and  _343
REMARK  141  A    between atoms: _343  and  _344
REMARK  142  A    between atoms: _343  and  _346
REMARK  143  A    between atoms: _349  and  _351
REMARK  144  A    between atoms: _351  and  _352
REMARK  145  A    between atoms: _351  and  _354
REMARK  146  A    between atoms: _354  and  _355
REMARK  147  A    between atoms: _358  and  _360
REMARK  148  A    between atoms: _360  and  _361
REMARK  149  A    between atoms: _360  and  _363
REMARK  150  A    between atoms: _363  and  _364
REMARK  151  A    between atoms: _367  and  _369
REMARK  152  A    between atoms: _369  and  _370
REMARK  153  A    between atoms: _369  and  _372
REMARK  154  A    between atoms: _372  and  _373
REMARK  155  A    between atoms: _373  and  _374
REMARK  156  A    between atoms: _374  and  _375
REMARK  157  A    between atoms: _384  and  _386
REMARK  158  A    between atoms: _386  and  _387
REMARK  159  A    between atoms: _386  and  _389
REMARK  160  A    between atoms: _389  and  _390
REMARK  161  A    between atoms: _393  and  _395
REMARK  162  A    between atoms: _395  and  _396
REMARK  163  A    between atoms: _395  and  _398
REMARK  164  A    between atoms: _398  and  _399
REMARK  165  A    between atoms: _402  and  _404
REMARK  166  A    between atoms: _404  and  _405
REMARK  167  A    between atoms: _404  and  _407
REMARK  168  A    between atoms: _407  and  _408
REMARK  169  A    between atoms: _411  and  _413
REMARK  170  A    between atoms: _413  and  _414
REMARK  171  A    between atoms: _413  and  _416
REMARK  172  A    between atoms: _416  and  _417
REMARK  173  A    between atoms: _422  and  _423
REMARK  174  A    between atoms: _425  and  _427
REMARK  175  A    between atoms: _427  and  _428
REMARK  176  A    between atoms: _427  and  _430
REMARK  177  A    between atoms: _430  and  _431
REMARK  178  A    between atoms: _436  and  _437
REMARK  179  A    between atoms: _439  and  _441
REMARK  180  A    between atoms: _441  and  _442
REMARK  181  A    between atoms: _441  and  _444
REMARK  182  A    between atoms: _444  and  _445
REMARK  183  A    between atoms: _448  and  _450
REMARK  184  A    between atoms: _450  and  _451
REMARK  185  A    between atoms: _450  and  _453
REMARK  186  A    between atoms: _456  and  _458
REMARK  187  A    between atoms: _458  and  _459
REMARK  188  A    between atoms: _458  and  _461
REMARK  189  A    between atoms: _461  and  _462
REMARK  190  A    between atoms: _465  and  _467
REMARK  191  A    between atoms: _467  and  _468
REMARK  192  A    between atoms: _467  and  _470
REMARK  193  A    between atoms: _470  and  _471
REMARK  194  A    between atoms: _473  and  _475
REMARK  195  A    between atoms: _475  and  _476
REMARK  196  A    between atoms: _478  and  _480
REMARK  197  A    between atoms: _480  and  _481
REMARK  198  A    between atoms: _480  and  _483
REMARK  199  A    between atoms: _483  and  _484
REMARK  200  A    between atoms: _489  and  _490
REMARK  201  A    between atoms: _492  and  _494
REMARK  202  A    between atoms: _494  and  _495
REMARK  203  A    between atoms: _494  and  _497
REMARK  204  A    between atoms: _497  and  _498
REMARK  205  A    between atoms: _498  and  _499
REMARK  206  A    between atoms: _504  and  _506
REMARK  207  A    between atoms: _506  and  _507
REMARK  208  A    between atoms: _506  and  _509
REMARK  209  A    between atoms: _509  and  _510
REMARK  210  A    between atoms: _510  and  _511
REMARK  211  A    between atoms: _516  and  _518
REMARK  212  A    between atoms: _518  and  _519
REMARK  213  A    between atoms: _518  and  _521
REMARK  214  A    between atoms: _521  and  _522
REMARK  215  A    between atoms: _527  and  _528
REMARK  216  A    between atoms: _530  and  _532
REMARK  217  A    between atoms: _532  and  _533
REMARK  218  A    between atoms: _532  and  _535
REMARK  219  A    between atoms: _535  and  _536
REMARK  220  A    between atoms: _541  and  _542
REMARK  221  A    between atoms: _544  and  _546
REMARK  222  A    between atoms: _546  and  _547
REMARK  223  A    between atoms: _546  and  _549
REMARK  224  A    between atoms: _549  and  _550
REMARK  225  A    between atoms: _555  and  _556
REMARK  226  A    between atoms: _558  and  _560
REMARK  227  A    between atoms: _560  and  _561
REMARK  228  A    between atoms: _560  and  _563
REMARK  229  A    between atoms: _563  and  _564
REMARK  230  A    between atoms: _567  and  _569
REMARK  231  A    between atoms: _569  and  _570
REMARK  232  A    between atoms: _569  and  _572
REMARK  233  A    between atoms: _572  and  _573
REMARK  234  A    between atoms: _583  and  _585
REMARK  235  A    between atoms: _585  and  _586
REMARK  236  A    between atoms: _589  and  _591
REMARK  237  A    between atoms: _591  and  _592
REMARK  238  A    between atoms: _595  and  _597
REMARK  239  A    between atoms: _597  and  _598
REMARK  240  A    between atoms: _597  and  _600
REMARK  241  A    between atoms: _600  and  _601
REMARK  242  A    between atoms: _604  and  _606
REMARK  243  A    between atoms: _606  and  _607
REMARK  244  A    between atoms: _606  and  _609
REMARK  245  A    between atoms: _609  and  _610
REMARK  246  A    between atoms: _613  and  _615
REMARK  247  A    between atoms: _615  and  _616
REMARK  248  A    between atoms: _615  and  _618
REMARK  249  A    between atoms: _618  and  _619
REMARK  250  A    between atoms: _622  and  _624
REMARK  251  A    between atoms: _624  and  _625
REMARK  252  A    between atoms: _624  and  _627
REMARK  253  A    between atoms: _627  and  _628
REMARK  254  A    between atoms: _628  and  _629
REMARK  255  A    between atoms: _629  and  _630
REMARK  256  A    between atoms: _630  and  _631
REMARK  257  A    between atoms: _635  and  _637
REMARK  258  A    between atoms: _637  and  _638
REMARK  259  A    between atoms: _637  and  _640
REMARK  260  A    between atoms: _640  and  _641
REMARK  261  A    between atoms: _646  and  _648
REMARK  262  A    between atoms: _648  and  _649
REMARK  263  A    between atoms: _648  and  _651
REMARK  264  A    between atoms: _651  and  _652
REMARK  265  A    between atoms: _652  and  _653
REMARK  266  A    between atoms: _653  and  _654
REMARK  267  A    between atoms: _654  and  _655
REMARK  268  A    between atoms: _659  and  _661
REMARK  269  A    between atoms: _661  and  _662
REMARK  270  A    between atoms: _661  and  _664
REMARK  271  A    between atoms: _664  and  _665
REMARK  272  A    between atoms: _675  and  _677
REMARK  273  A    between atoms: _677  and  _678
REMARK  274  A    between atoms: _681  and  _683
REMARK  275  A    between atoms: _683  and  _684
REMARK  276  A    between atoms: _686  and  _688
REMARK  277  A    between atoms: _688  and  _689
REMARK  278  A    between atoms: _688  and  _691
REMARK  279  A    between atoms: _691  and  _692
REMARK  280  A    between atoms: _692  and  _693
REMARK  281  A    between atoms: _696  and  _698
REMARK  282  A    between atoms: _698  and  _699
REMARK  283  A    between atoms: _702  and  _704
REMARK  284  A    between atoms: _704  and  _705
REMARK  285  A    between atoms: _704  and  _707
REMARK  286  A    between atoms: _707  and  _708
REMARK  287  A    between atoms: _708  and  _709
REMARK  288  A    between atoms: _712  and  _714
REMARK  289  A    between atoms: _714  and  _715
REMARK  290  A    between atoms: _714  and  _717
REMARK  291  A    between atoms: _717  and  _718
REMARK  292  A    between atoms: _718  and  _719
REMARK  293  A    between atoms: _719  and  _720
REMARK  294  A    between atoms: _729  and  _731
REMARK  295  A    between atoms: _731  and  _732
REMARK  296  A    between atoms: _731  and  _734
REMARK  297  A    between atoms: _734  and  _735
REMARK  298  A    between atoms: _738  and  _740
REMARK  299  A    between atoms: _740  and  _741
REMARK  300  A    between atoms: _740  and  _743
REMARK  301  A    between atoms: _743  and  _744
REMARK  302  A    between atoms: _744  and  _745
REMARK  303  A    between atoms: _745  and  _746
REMARK  304  A    between atoms: _755  and  _757
REMARK  305  A    between atoms: _757  and  _758
REMARK  306  A    between atoms: _761  and  _763
REMARK  307  A    between atoms: _763  and  _764
REMARK  308  A    between atoms: _763  and  _766
REMARK  309  A    between atoms: _766  and  _767
REMARK  310  A    between atoms: _772  and  _773
REMARK  311  A    between atoms: _775  and  _777
REMARK  312  A    between atoms: _777  and  _778
REMARK  313  A    between atoms: _777  and  _780
REMARK  314  A    between atoms: _780  and  _781
REMARK  315  A    between atoms: _784  and  _786
REMARK  316  A    between atoms: _786  and  _787
REMARK  317  A    between atoms: _786  and  _789
REMARK  318  A    between atoms: _789  and  _790
REMARK  319  A    between atoms: _793  and  _795
REMARK  320  A    between atoms: _795  and  _796
REMARK  321  A    between atoms: _795  and  _798
REMARK  322  A    between atoms: _800  and  _802
REMARK  323  A    between atoms: _802  and  _803
REMARK  324  A    between atoms: _802  and  _805
REMARK  325  A    between atoms: _808  and  _810
REMARK  326  A    between atoms: _810  and  _811
REMARK  327  A    between atoms: _810  and  _813
REMARK  328  A    between atoms: _813  and  _814
REMARK  329  A    between atoms: _814  and  _815
REMARK  330  A    between atoms: _818  and  _820
REMARK  331  A    between atoms: _820  and  _821
REMARK  332  A    between atoms: _820  and  _823
REMARK  333  A    between atoms: _823  and  _824
REMARK  334  A    between atoms: _834  and  _836
REMARK  335  A    between atoms: _836  and  _837
REMARK  336  A    between atoms: _836  and  _839
REMARK  337  A    between atoms: _839  and  _840
REMARK  338  A    between atoms: _843  and  _845
REMARK  339  A    between atoms: _845  and  _846
REMARK  340  A    between atoms: _845  and  _848
REMARK  341  A    between atoms: _848  and  _849
REMARK  342  A    between atoms: _849  and  _850
REMARK  343  A    between atoms: _850  and  _851
REMARK  344  A    between atoms: _860  and  _862
REMARK  345  A    between atoms: _862  and  _863
REMARK  346  A    between atoms: _862  and  _865
REMARK  347  A    between atoms: _865  and  _866
REMARK  348  A    between atoms: _871  and  _872
REMARK  349  A    between atoms: _874  and  _876
REMARK  350  A    between atoms: _876  and  _877
REMARK  351  A    between atoms: _876  and  _879
REMARK  352  A    between atoms: _879  and  _880
REMARK  353  A    between atoms: _880  and  _881
REMARK  354  A    between atoms: _886  and  _888
REMARK  355  A    between atoms: _888  and  _889
REMARK  356  A    between atoms: _888  and  _891
REMARK  357  A    between atoms: _891  and  _892
REMARK  358  A    between atoms: _895  and  _897
REMARK  359  A    between atoms: _897  and  _898
REMARK  360  A    between atoms: _897  and  _900
REMARK  361  A    between atoms: _900  and  _901
REMARK  362  A    between atoms: _903  and  _905
REMARK  363  A    between atoms: _905  and  _906
REMARK  364  A    between atoms: _905  and  _908
REMARK  365  A    between atoms: _908  and  _909
REMARK  366  A    between atoms: _911  and  _913
REMARK  367  A    between atoms: _913  and  _914
REMARK  368  A    between atoms: _913  and  _916
REMARK  369  A    between atoms: _916  and  _917
REMARK  370  A    between atoms: _923  and  _925
REMARK  371  A    between atoms: _925  and  _926
REMARK  372  A    between atoms: _925  and  _928
REMARK  373  A    between atoms: _928  and  _929
REMARK  374  A    between atoms: _929  and  _930
REMARK  375  A    between atoms: _930  and  _931
REMARK  376  A    between atoms: _940  and  _942
REMARK  377  A    between atoms: _942  and  _943
REMARK  378  A    between atoms: _942  and  _945
REMARK  379  A    between atoms: _945  and  _946
REMARK  380  A    between atoms: _946  and  _947
REMARK  381  A    between atoms: _947  and  _948
REMARK  382  A    between atoms: _957  and  _959
REMARK  383  A    between atoms: _959  and  _960
REMARK  384  A    between atoms: _962  and  _964
REMARK  385  A    between atoms: _964  and  _965
REMARK  386  A    between atoms: _964  and  _967
REMARK  387  A    between atoms: _967  and  _968
REMARK  388  A    between atoms: _974  and  _975
REMARK  389  A    between atoms: _980  and  _982
REMARK  390  A    between atoms: _982  and  _983
REMARK  391  A    between atoms: _982  and  _985
REMARK  392  A    between atoms: _985  and  _986
REMARK  393  A    between atoms: _996  and  _998
REMARK  394  A    between atoms: _998  and  _999
REMARK  395  A    between atoms: _998  and  _1001
REMARK  396  A    between atoms: _1001  and  _1002
REMARK  397  A    between atoms: _1002  and  _1003
REMARK  398  A    between atoms: _1003  and  _1004
REMARK  399  A    between atoms: _1013  and  _1015
REMARK  400  A    between atoms: _1015  and  _1016
REMARK  401  A    between atoms: _1015  and  _1018
REMARK  402  A    between atoms: _1018  and  _1019
REMARK  403  A    between atoms: _1021  and  _1023
REMARK  404  A    between atoms: _1023  and  _1024
REMARK  405  A    between atoms: _1027  and  _1029
REMARK  406  A    between atoms: _1029  and  _1030
REMARK  407  A    between atoms: _1029  and  _1032
REMARK  408  A    between atoms: _1032  and  _1033
REMARK  409  A    between atoms: _1036  and  _1038
REMARK  410  A    between atoms: _1038  and  _1039
REMARK  411  A    between atoms: _1038  and  _1041
REMARK  412  A    between atoms: _1041  and  _1042
REMARK  413  A    between atoms: _1042  and  _1043
REMARK  414  A    between atoms: _1043  and  _1044
REMARK  415  A    between atoms: _1053  and  _1055
REMARK  416  A    between atoms: _1055  and  _1056
REMARK  417  A    between atoms: _1055  and  _1058
REMARK  418  A    between atoms: _1061  and  _1063
REMARK  419  A    between atoms: _1063  and  _1064
REMARK  420  A    between atoms: _1066  and  _1068
REMARK  421  A    between atoms: _1068  and  _1069
REMARK  422  A    between atoms: _1068  and  _1071
REMARK  423  A    between atoms: _1071  and  _1072
REMARK                            x       y       z     vdW  Elec       q    Type
REMARK                         _______ _______ _______ _____ _____    ______ ____
ROOT
ATOM      1  CA  ARG A   4      17.223  27.512  56.266  0.00  0.00    +0.149 C 
ENDROOT
BRANCH   1   4
ATOM      2  C   ASP A   3      15.121  27.496  57.466  0.00  0.00    +0.241 C 
ATOM      3  O   ASP A   3      15.690  27.283  58.541  0.00  0.00    -0.273 OA
ATOM      4  N   ARG A   4      15.789  27.628  56.329  0.00  0.00    -0.297 N 
ATOM      5  H   ARG A   4      15.261  27.822  55.454  0.00  0.00    +0.150 HD
BRANCH   2   6
ATOM      6  CA  ASP A   3      13.612  27.563  57.354  0.00  0.00    +0.160 C 
BRANCH   6   8
ATOM      7  C   ALA A   2      11.735  26.836  58.709  0.00  0.00    +0.241 C 
ATOM      8  N   ASP A   3      13.001  27.223  58.631  0.00  0.00    -0.297 N 
ATOM      9  H   ASP A   3      13.569  27.285  59.500  0.00  0.00    +0.150 HD
ATOM     10  O   ALA A   2      11.033  26.754  57.686  0.00  0.00    -0.273 OA
BRANCH   7  11
ATOM     11  CA  ALA A   2      11.124  26.513  60.066  0.00  0.00    +0.149 C 
ATOM     12  CB  ALA A   2      10.174  27.631  60.455  0.00  0.00    +0.031 C 
BRANCH  11  14
ATOM     13  C   SER A   1      12.713  25.158  61.298  0.00  0.00    +0.241 C 
ATOM     14  N   ALA A   2      12.088  26.309  61.154  0.00  0.00    -0.297 N 
ATOM     15  H   ALA A   2      12.280  27.084  61.821  0.00  0.00    +0.150 HD
ATOM     16  O   SER A   1      12.573  24.187  60.536  0.00  0.00    -0.274 OA
BRANCH  13  17
ATOM     17  CA  SER A   1      13.720  24.966  62.422  0.00  0.00    +0.174 C 
BRANCH  17  18
ATOM     18  N   SER A   1      13.811  23.510  62.681  0.00  0.00    -0.236 NA
ATOM     19  H   SER A   1      13.742  22.826  61.901  0.00  0.00    +0.142 HD
ENDBRANCH  17  18
BRANCH  17  20
ATOM     20  CB  SER A   1      15.097  25.409  61.878  0.00  0.00    +0.163 C 
BRANCH  20  21
ATOM     21  OG  SER A   1      15.212  26.807  62.043  0.00  0.00    -0.380 OA
ATOM     22  H   SER A   1      15.138  27.032  63.004  0.00  0.00    +0.211 HD
ENDBRANCH  20  21
ENDBRANCH  17  20
ENDBRANCH  13  17
ENDBRANCH  11  14
ENDBRANCH   7  11
ENDBRANCH   6   8
BRANCH   6  23
ATOM     23  CB  ASP A   3      13.122  28.925  56.856  0.00  0.00    +0.143 C 
BRANCH  23  24
ATOM     24  CG  ASP A   3      12.777  28.985  55.388  0.00  0.00    +0.367 C 
ATOM     25  OD2 ASP A   3      11.890  29.774  54.997  0.00  0.00    -0.246 OA
ATOM     26  OD1 ASP A   3      13.391  28.244  54.585  0.00  0.00    -0.246 OA
ENDBRANCH  23  24
ENDBRANCH   6  23
ENDBRANCH   2   6
ENDBRANCH   1   4
BRANCH   1  27
ATOM     27  C   ARG A   4      18.053  28.599  56.898  0.00  0.00    +0.241 C 
ATOM     28  O   ARG A   4      19.160  28.341  57.431  0.00  0.00    -0.273 OA
ATOM     29  N   VAL A   5      17.672  29.858  56.794  0.00  0.00    -0.297 N 
ATOM     30  H   VAL A   5      16.769  30.058  56.318  0.00  0.00    +0.150 HD
BRANCH  29  31
ATOM     31  CA  VAL A   5      18.437  30.979  57.304  0.00  0.00    +0.149 C 
BRANCH  31  32
ATOM     32  C   VAL A   5      17.701  31.801  58.348  0.00  0.00    +0.241 C 
ATOM     33  N   GLY A   6      18.355  32.177  59.431  0.00  0.00    -0.295 N 
ATOM     34  H   GLY A   6      19.343  31.868  59.529  0.00  0.00    +0.150 HD
ATOM     35  O   VAL A   5      16.533  32.132  58.193  0.00  0.00    -0.273 OA
BRANCH  33  36
ATOM     36  CA  GLY A   6      17.812  32.966  60.465  0.00  0.00    +0.176 C 
BRANCH  36  37
ATOM     37  C   GLY A   6      16.542  32.570  61.152  0.00  0.00    +0.243 C 
ATOM     38  O   GLY A   6      15.784  33.495  61.516  0.00  0.00    -0.273 OA
ATOM     39  N   ASN A   7      16.231  31.299  61.400  0.00  0.00    -0.298 N 
ATOM     40  H   ASN A   7      16.856  30.533  61.077  0.00  0.00    +0.150 HD
BRANCH  39  41
ATOM     41  CA  ASN A   7      14.998  30.989  62.134  0.00  0.00    +0.146 C 
BRANCH  41  42
ATOM     42  C   ASN A   7      15.441  30.195  63.365  0.00  0.00    +0.227 C 
ATOM     43  O   ASN A   7      16.445  29.504  63.291  0.00  0.00    -0.286 OA
ENDBRANCH  41  42
BRANCH  41  44
ATOM     44  CB  ASN A   7      13.946  30.246  61.390  0.00  0.00    +0.112 C 
BRANCH  44  45
ATOM     45  CG  ASN A   7      13.249  30.945  60.263  0.00  0.00    +0.222 C 
ATOM     46  OD1 ASN A   7      12.036  30.931  60.153  0.00  0.00    -0.275 OA
ATOM     47  ND2 ASN A   7      13.969  31.582  59.359  0.00  0.00    -0.329 N 
ATOM     48 HD21 ASN A   7      15.006  31.602  59.440  0.00  0.00    +0.145 HD
ATOM     49 HD22 ASN A   7      13.500  32.064  58.566  0.00  0.00    +0.145 HD
ENDBRANCH  44  45
ENDBRANCH  41  44
ENDBRANCH  39  41
ENDBRANCH  36  37
ENDBRANCH  33  36
ENDBRANCH  31  32
BRANCH  31  50
ATOM     50  CB  VAL A   5      18.748  31.950  56.131  0.00  0.00    +0.027 C 
ATOM     51  CG2 VAL A   5      19.480  33.177  56.676  0.00  0.00    +0.002 C 
ATOM     52  CG1 VAL A   5      19.573  31.244  55.071  0.00  0.00    +0.002 C 
ENDBRANCH  31  50
ENDBRANCH  29  31
ENDBRANCH   1  27
BRANCH   1  53
ATOM     53  CB  ARG A   4      17.622  27.368  54.778  0.00  0.00    +0.033 C 
BRANCH  53  54
ATOM     54  CG  ARG A   4      19.131  27.175  54.689  0.00  0.00    +0.045 C 
BRANCH  54  55
ATOM     55  CD  ARG A   4      19.525  26.792  53.284  0.00  0.00    +0.174 C 
BRANCH  55  56
ATOM     56  NE  ARG A   4      19.371  27.938  52.388  0.00  0.00    -0.265 N 
ATOM     57  CZ  ARG A   4      20.310  28.892  52.352  0.00  0.00    +0.342 C 
ATOM     58  NH2 ARG A   4      21.348  28.726  53.156  0.00  0.00    -0.292 N 
ATOM     59 HH21 ARG A   4      21.401  27.889  53.770  0.00  0.00    +0.255 HD
ATOM     60 HH22 ARG A   4      22.110  29.433  53.174  0.00  0.00    +0.255 HD
ATOM     61  NH1 ARG A   4      20.180  29.931  51.543  0.00  0.00    -0.292 N 
ATOM     62 HH11 ARG A   4      20.914  30.668  51.521  0.00  0.00    +0.255 HD
ATOM     63 HH12 ARG A   4      19.344  30.011  50.929  0.00  0.00    +0.255 HD
ATOM     64  HE  ARG A   4      18.532  28.012  51.778  0.00  0.00    +0.259 HD
ENDBRANCH  55  56
ENDBRANCH  54  55
ENDBRANCH  53  54
ENDBRANCH   1  53
TORSDOF 25
REMARK  Name = ../refined-set-2016/1fo0/1fo0_pocket.pdb
REMARK  423 active torsions:
REMARK  status: ('A' for Active; 'I' for Inactive)
REMARK    1  A    between atoms: _1  and  _3
REMARK    2  A    between atoms: _3  and  _4
REMARK    3  A    between atoms: _3  and  _6
REMARK    4  A    between atoms: _6  and  _7
REMARK    5  A    between atoms: _10  and  _12
REMARK    6  A    between atoms: _12  and  _13
REMARK    7  A    between atoms: _12  and  _15
REMARK    8  A    between atoms: _15  and  _16
REMARK    9  A    between atoms: _16  and  _17
REMARK   10  A    between atoms: _17  and  _18
REMARK   11  A    between atoms: _27  and  _29
REMARK   12  A    between atoms: _29  and  _30
REMARK   13  A    between atoms: _29  and  _32
REMARK   14  A    between atoms: _32  and  _33
REMARK   15  A    between atoms: _38  and  _39
REMARK   16  A    between atoms: _41  and  _43
REMARK   17  A    between atoms: _43  and  _44
REMARK   18  A    between atoms: _43  and  _46
REMARK   19  A    between atoms: _46  and  _47
REMARK   20  A    between atoms: _53  and  _55
REMARK   21  A    between atoms: _55  and  _56
REMARK   22  A    between atoms: _55  and  _58
REMARK   23  A    between atoms: _61  and  _63
REMARK   24  A    between atoms: _63  and  _64
REMARK   25  A    between atoms: _63  and  _66
REMARK   26  A    between atoms: _66  and  _67
REMARK   27  A    between atoms: _70  and  _72
REMARK   28  A    between atoms: _72  and  _73
REMARK   29  A    between atoms: _72  and  _75
REMARK   30  A    between atoms: _75  and  _76
REMARK   31  A    between atoms: _81  and  _82
REMARK   32  A    between atoms: _84  and  _86
REMARK   33  A    between atoms: _86  and  _87
REMARK   34  A    between atoms: _86  and  _89
REMARK   35  A    between atoms: _89  and  _90
REMARK   36  A    between atoms: _90  and  _91
REMARK   37  A    between atoms: _93  and  _95
REMARK   38  A    between atoms: _95  and  _96
REMARK   39  A    between atoms: _95  and  _98
REMARK   40  A    between atoms: _98  and  _99
REMARK   41  A    between atoms: _99  and  _100
REMARK   42  A    between atoms: _103  and  _105
REMARK   43  A    between atoms: _105  and  _106
REMARK   44  A    between atoms: _105  and  _108
REMARK   45  A    between atoms: _111  and  _113
REMARK   46  A    between atoms: _113  and  _114
REMARK   47  A    between atoms: _116  and  _118
REMARK   48  A    between atoms: _118  and  _119
REMARK   49  A    between atoms: _118  and  _121
REMARK   50  A    between atoms: _121  and  _122
REMARK   51  A    between atoms: _128  and  _130
REMARK   52  A    between atoms: _130  and  _131
REMARK   53  A    between atoms: _130  and  _133
REMARK   54  A    between atoms: _136  and  _138
REMARK   55  A    between atoms: _138  and  _139
REMARK   56  A    between atoms: _138  and  _141
REMARK   57  A    between atoms: _141  and  _142
REMARK   58  A    between atoms: _148  and  _150
REMARK   59  A    between atoms: _150  and  _151
REMARK   60  A    between atoms: _150  and  _153
REMARK   61  A    between atoms: _153  and  _154
REMARK   62  A    between atoms: _159  and  _160
REMARK   63  A    between atoms: _162  and  _164
REMARK   64  A    between atoms: _164  and  _165
REMARK   65  A    between atoms: _164  and  _167
REMARK   66  A    between atoms: _167  and  _168
REMARK   67  A    between atoms: _168  and  _169
REMARK   68  A    between atoms: _171  and  _173
REMARK   69  A    between atoms: _173  and  _174
REMARK   70  A    between atoms: _173  and  _176
REMARK   71  A    between atoms: _176  and  _177
REMARK   72  A    between atoms: _177  and  _178
REMARK   73  A    between atoms: _181  and  _183
REMARK   74  A    between atoms: _183  and  _184
REMARK   75  A    between atoms: _183  and  _186
REMARK   76  A    between atoms: _186  and  _187
REMARK   77  A    between atoms: _192  and  _193
REMARK   78  A    between atoms: _195  and  _197
REMARK   79  A    between atoms: _197  and  _198
REMARK   80  A    between atoms: _197  and  _200
REMARK   81  A    between atoms: _200  and  _201
REMARK   82  A    between atoms: _201  and  _202
REMARK   83  A    between atoms: _202  and  _203
REMARK   84  A    between atoms: _212  and  _214
REMARK   85  A    between atoms: _214  and  _215
REMARK   86  A    between atoms: _214  and  _217
REMARK   87  A    between atoms: _217  and  _218
REMARK   88  A    between atoms: _218  and  _219
REMARK   89  A    between atoms: _222  and  _224
REMARK   90  A    between atoms: _224  and  _225
REMARK   91  A    between atoms: _224  and  _227
REMARK   92  A    between atoms: _227  and  _228
REMARK   93  A    between atoms: _228  and  _229
REMARK   94  A    between atoms: _234  and  _236
REMARK   95  A    between atoms: _236  and  _237
REMARK   96  A    between atoms: _236  and  _239
REMARK   97  A    between atoms: _239  and  _240
REMARK   98  A    between atoms: _240  and  _241
REMARK   99  A    between atoms: _241  and  _242
REMARK  100  A    between atoms: _242  and  _243
REMARK  101  A    between atoms: _247  and  _249
REMARK  102  A    between atoms: _249  and  _250
REMARK  103  A    between atoms: _253  and  _255
REMARK  104  A    between atoms: _255  and  _256
REMARK  105  A    between atoms: _255  and  _258
REMARK  106  A    between atoms: _258  and  _259
REMARK  107  A    between atoms: _259  and  _260
REMARK  108  A    between atoms: _260  and  _261
REMARK  109  A    between atoms: _261  and  _262
REMARK  110  A    between atoms: _266  and  _268
REMARK  111  A    between atoms: _268  and  _269
REMARK  112  A    between atoms: _271  and  _273
REMARK  113  A    between atoms: _273  and  _274
REMARK  114  A    between atoms: _273  and  _276
REMARK  115  A    between atoms: _276  and  _277
REMARK  116  A    between atoms: _282  and  _284
REMARK  117  A    between atoms: _284  and  _285
REMARK  118  A    between atoms: _284  and  _287
REMARK  119  A    between atoms: _287  and  _288
REMARK  120  A    between atoms: _288  and  _289
REMARK  121  A    between atoms: _292  and  _294
REMARK  122  A    between atoms: _294  and  _295
REMARK  123  A    between atoms: _294  and  _297
REMARK  124  A    between atoms: _297  and  _298
REMARK  125  A    between atoms: _298  and  _299
REMARK  126  A    between atoms: _304  and  _306
REMARK  127  A    between atoms: _306  and  _307
REMARK  128  A    between atoms: _306  and  _309
REMARK  129  A    between atoms: _309  and  _310
REMARK  130  A    between atoms: _312  and  _314
REMARK  131  A    between atoms: _314  and  _315
REMARK  132  A    between atoms: _314  and  _317
REMARK  133  A    between atoms: _317  and  _318
REMARK  134  A    between atoms: _324  and  _326
REMARK  135  A    between atoms: _326  and  _327
REMARK  136  A    between atoms: _326  and  _329
REMARK  137  A    between atoms: _329  and  _330
REMARK  138  A    between atoms: _330  and  _331
REMARK  139  A    between atoms: _331  and  _332
REMARK  140  A    between atoms: _341  and  _343
REMARK  141  A    between atoms: _343  and  _344
REMARK  142  A    between atoms: _343  and  _346
REMARK  143  A    between atoms: _349  and  _351
REMARK  144  A    between atoms: _351  and  _352
REMARK  145  A    between atoms: _351  and  _354
REMARK  146  A    between atoms: _354  and  _355
REMARK  147  A    between atoms: _358  and  _360
REMARK  148  A    between atoms: _360  and  _361
REMARK  149  A    between atoms: _360  and  _363
REMARK  150  A    between atoms: _363  and  _364
REMARK  151  A    between atoms: _367  and  _369
REMARK  152  A    between atoms: _369  and  _370
REMARK  153  A    between atoms: _369  and  _372
REMARK  154  A    between atoms: _372  and  _373
REMARK  155  A    between atoms: _373  and  _374
REMARK  156  A    between atoms: _374  and  _375
REMARK  157  A    between atoms: _384  and  _386
REMARK  158  A    between atoms: _386  and  _387
REMARK  159  A    between atoms: _386  and  _389
REMARK  160  A    between atoms: _389  and  _390
REMARK  161  A    between atoms: _393  and  _395
REMARK  162  A    between atoms: _395  and  _396
REMARK  163  A    between atoms: _395  and  _398
REMARK  164  A    between atoms: _398  and  _399
REMARK  165  A    between atoms: _402  and  _404
REMARK  166  A    between atoms: _404  and  _405
REMARK  167  A    between atoms: _404  and  _407
REMARK  168  A    between atoms: _407  and  _408
REMARK  169  A    between atoms: _411  and  _413
REMARK  170  A    between atoms: _413  and  _414
REMARK  171  A    between atoms: _413  and  _416
REMARK  172  A    between atoms: _416  and  _417
REMARK  173  A    between atoms: _422  and  _423
REMARK  174  A    between atoms: _425  and  _427
REMARK  175  A    between atoms: _427  and  _428
REMARK  176  A    between atoms: _427  and  _430
REMARK  177  A    between atoms: _430  and  _431
REMARK  178  A    between atoms: _436  and  _437
REMARK  179  A    between atoms: _439  and  _441
REMARK  180  A    between atoms: _441  and  _442
REMARK  181  A    between atoms: _441  and  _444
REMARK  182  A    between atoms: _444  and  _445
REMARK  183  A    between atoms: _448  and  _450
REMARK  184  A    between atoms: _450  and  _451
REMARK  185  A    between atoms: _450  and  _453
REMARK  186  A    between atoms: _456  and  _458
REMARK  187  A    between atoms: _458  and  _459
REMARK  188  A    between atoms: _458  and  _461
REMARK  189  A    between atoms: _461  and  _462
REMARK  190  A    between atoms: _465  and  _467
REMARK  191  A    between atoms: _467  and  _468
REMARK  192  A    between atoms: _467  and  _470
REMARK  193  A    between atoms: _470  and  _471
REMARK  194  A    between atoms: _473  and  _475
REMARK  195  A    between atoms: _475  and  _476
REMARK  196  A    between atoms: _478  and  _480
REMARK  197  A    between atoms: _480  and  _481
REMARK  198  A    between atoms: _480  and  _483
REMARK  199  A    between atoms: _483  and  _484
REMARK  200  A    between atoms: _489  and  _490
REMARK  201  A    between atoms: _492  and  _494
REMARK  202  A    between atoms: _494  and  _495
REMARK  203  A    between atoms: _494  and  _497
REMARK  204  A    between atoms: _497  and  _498
REMARK  205  A    between atoms: _498  and  _499
REMARK  206  A    between atoms: _504  and  _506
REMARK  207  A    between atoms: _506  and  _507
REMARK  208  A    between atoms: _506  and  _509
REMARK  209  A    between atoms: _509  and  _510
REMARK  210  A    between atoms: _510  and  _511
REMARK  211  A    between atoms: _516  and  _518
REMARK  212  A    between atoms: _518  and  _519
REMARK  213  A    between atoms: _518  and  _521
REMARK  214  A    between atoms: _521  and  _522
REMARK  215  A    between atoms: _527  and  _528
REMARK  216  A    between atoms: _530  and  _532
REMARK  217  A    between atoms: _532  and  _533
REMARK  218  A    between atoms: _532  and  _535
REMARK  219  A    between atoms: _535  and  _536
REMARK  220  A    between atoms: _541  and  _542
REMARK  221  A    between atoms: _544  and  _546
REMARK  222  A    between atoms: _546  and  _547
REMARK  223  A    between atoms: _546  and  _549
REMARK  224  A    between atoms: _549  and  _550
REMARK  225  A    between atoms: _555  and  _556
REMARK  226  A    between atoms: _558  and  _560
REMARK  227  A    between atoms: _560  and  _561
REMARK  228  A    between atoms: _560  and  _563
REMARK  229  A    between atoms: _563  and  _564
REMARK  230  A    between atoms: _567  and  _569
REMARK  231  A    between atoms: _569  and  _570
REMARK  232  A    between atoms: _569  and  _572
REMARK  233  A    between atoms: _572  and  _573
REMARK  234  A    between atoms: _583  and  _585
REMARK  235  A    between atoms: _585  and  _586
REMARK  236  A    between atoms: _589  and  _591
REMARK  237  A    between atoms: _591  and  _592
REMARK  238  A    between atoms: _595  and  _597
REMARK  239  A    between atoms: _597  and  _598
REMARK  240  A    between atoms: _597  and  _600
REMARK  241  A    between atoms: _600  and  _601
REMARK  242  A    between atoms: _604  and  _606
REMARK  243  A    between atoms: _606  and  _607
REMARK  244  A    between atoms: _606  and  _609
REMARK  245  A    between atoms: _609  and  _610
REMARK  246  A    between atoms: _613  and  _615
REMARK  247  A    between atoms: _615  and  _616
REMARK  248  A    between atoms: _615  and  _618
REMARK  249  A    between atoms: _618  and  _619
REMARK  250  A    between atoms: _622  and  _624
REMARK  251  A    between atoms: _624  and  _625
REMARK  252  A    between atoms: _624  and  _627
REMARK  253  A    between atoms: _627  and  _628
REMARK  254  A    between atoms: _628  and  _629
REMARK  255  A    between atoms: _629  and  _630
REMARK  256  A    between atoms: _630  and  _631
REMARK  257  A    between atoms: _635  and  _637
REMARK  258  A    between atoms: _637  and  _638
REMARK  259  A    between atoms: _637  and  _640
REMARK  260  A    between atoms: _640  and  _641
REMARK  261  A    between atoms: _646  and  _648
REMARK  262  A    between atoms: _648  and  _649
REMARK  263  A    between atoms: _648  and  _651
REMARK  264  A    between atoms: _651  and  _652
REMARK  265  A    between atoms: _652  and  _653
REMARK  266  A    between atoms: _653  and  _654
REMARK  267  A    between atoms: _654  and  _655
REMARK  268  A    between atoms: _659  and  _661
REMARK  269  A    between atoms: _661  and  _662
REMARK  270  A    between atoms: _661  and  _664
REMARK  271  A    between atoms: _664  and  _665
REMARK  272  A    between atoms: _675  and  _677
REMARK  273  A    between atoms: _677  and  _678
REMARK  274  A    between atoms: _681  and  _683
REMARK  275  A    between atoms: _683  and  _684
REMARK  276  A    between atoms: _686  and  _688
REMARK  277  A    between atoms: _688  and  _689
REMARK  278  A    between atoms: _688  and  _691
REMARK  279  A    between atoms: _691  and  _692
REMARK  280  A    between atoms: _692  and  _693
REMARK  281  A    between atoms: _696  and  _698
REMARK  282  A    between atoms: _698  and  _699
REMARK  283  A    between atoms: _702  and  _704
REMARK  284  A    between atoms: _704  and  _705
REMARK  285  A    between atoms: _704  and  _707
REMARK  286  A    between atoms: _707  and  _708
REMARK  287  A    between atoms: _708  and  _709
REMARK  288  A    between atoms: _712  and  _714
REMARK  289  A    between atoms: _714  and  _715
REMARK  290  A    between atoms: _714  and  _717
REMARK  291  A    between atoms: _717  and  _718
REMARK  292  A    between atoms: _718  and  _719
REMARK  293  A    between atoms: _719  and  _720
REMARK  294  A    between atoms: _729  and  _731
REMARK  295  A    between atoms: _731  and  _732
REMARK  296  A    between atoms: _731  and  _734
REMARK  297  A    between atoms: _734  and  _735
REMARK  298  A    between atoms: _738  and  _740
REMARK  299  A    between atoms: _740  and  _741
REMARK  300  A    between atoms: _740  and  _743
REMARK  301  A    between atoms: _743  and  _744
REMARK  302  A    between atoms: _744  and  _745
REMARK  303  A    between atoms: _745  and  _746
REMARK  304  A    between atoms: _755  and  _757
REMARK  305  A    between atoms: _757  and  _758
REMARK  306  A    between atoms: _761  and  _763
REMARK  307  A    between atoms: _763  and  _764
REMARK  308  A    between atoms: _763  and  _766
REMARK  309  A    between atoms: _766  and  _767
REMARK  310  A    between atoms: _772  and  _773
REMARK  311  A    between atoms: _775  and  _777
REMARK  312  A    between atoms: _777  and  _778
REMARK  313  A    between atoms: _777  and  _780
REMARK  314  A    between atoms: _780  and  _781
REMARK  315  A    between atoms: _784  and  _786
REMARK  316  A    between atoms: _786  and  _787
REMARK  317  A    between atoms: _786  and  _789
REMARK  318  A    between atoms: _789  and  _790
REMARK  319  A    between atoms: _793  and  _795
REMARK  320  A    between atoms: _795  and  _796
REMARK  321  A    between atoms: _795  and  _798
REMARK  322  A    between atoms: _800  and  _802
REMARK  323  A    between atoms: _802  and  _803
REMARK  324  A    between atoms: _802  and  _805
REMARK  325  A    between atoms: _808  and  _810
REMARK  326  A    between atoms: _810  and  _811
REMARK  327  A    between atoms: _810  and  _813
REMARK  328  A    between atoms: _813  and  _814
REMARK  329  A    between atoms: _814  and  _815
REMARK  330  A    between atoms: _818  and  _820
REMARK  331  A    between atoms: _820  and  _821
REMARK  332  A    between atoms: _820  and  _823
REMARK  333  A    between atoms: _823  and  _824
REMARK  334  A    between atoms: _834  and  _836
REMARK  335  A    between atoms: _836  and  _837
REMARK  336  A    between atoms: _836  and  _839
REMARK  337  A    between atoms: _839  and  _840
REMARK  338  A    between atoms: _843  and  _845
REMARK  339  A    between atoms: _845  and  _846
REMARK  340  A    between atoms: _845  and  _848
REMARK  341  A    between atoms: _848  and  _849
REMARK  342  A    between atoms: _849  and  _850
REMARK  343  A    between atoms: _850  and  _851
REMARK  344  A    between atoms: _860  and  _862
REMARK  345  A    between atoms: _862  and  _863
REMARK  346  A    between atoms: _862  and  _865
REMARK  347  A    between atoms: _865  and  _866
REMARK  348  A    between atoms: _871  and  _872
REMARK  349  A    between atoms: _874  and  _876
REMARK  350  A    between atoms: _876  and  _877
REMARK  351  A    between atoms: _876  and  _879
REMARK  352  A    between atoms: _879  and  _880
REMARK  353  A    between atoms: _880  and  _881
REMARK  354  A    between atoms: _886  and  _888
REMARK  355  A    between atoms: _888  and  _889
REMARK  356  A    between atoms: _888  and  _891
REMARK  357  A    between atoms: _891  and  _892
REMARK  358  A    between atoms: _895  and  _897
REMARK  359  A    between atoms: _897  and  _898
REMARK  360  A    between atoms: _897  and  _900
REMARK  361  A    between atoms: _900  and  _901
REMARK  362  A    between atoms: _903  and  _905
REMARK  363  A    between atoms: _905  and  _906
REMARK  364  A    between atoms: _905  and  _908
REMARK  365  A    between atoms: _908  and  _909
REMARK  366  A    between atoms: _911  and  _913
REMARK  367  A    between atoms: _913  and  _914
REMARK  368  A    between atoms: _913  and  _916
REMARK  369  A    between atoms: _916  and  _917
REMARK  370  A    between atoms: _923  and  _925
REMARK  371  A    between atoms: _925  and  _926
REMARK  372  A    between atoms: _925  and  _928
REMARK  373  A    between atoms: _928  and  _929
REMARK  374  A    between atoms: _929  and  _930
REMARK  375  A    between atoms: _930  and  _931
REMARK  376  A    between atoms: _940  and  _942
REMARK  377  A    between atoms: _942  and  _943
REMARK  378  A    between atoms: _942  and  _945
REMARK  379  A    between atoms: _945  and  _946
REMARK  380  A    between atoms: _946  and  _947
REMARK  381  A    between atoms: _947  and  _948
REMARK  382  A    between atoms: _957  and  _959
REMARK  383  A    between atoms: _959  and  _960
REMARK  384  A    between atoms: _962  and  _964
REMARK  385  A    between atoms: _964  and  _965
REMARK  386  A    between atoms: _964  and  _967
REMARK  387  A    between atoms: _967  and  _968
REMARK  388  A    between atoms: _974  and  _975
REMARK  389  A    between atoms: _980  and  _982
REMARK  390  A    between atoms: _982  and  _983
REMARK  391  A    between atoms: _982  and  _985
REMARK  392  A    between atoms: _985  and  _986
REMARK  393  A    between atoms: _996  and  _998
REMARK  394  A    between atoms: _998  and  _999
REMARK  395  A    between atoms: _998  and  _1001
REMARK  396  A    between atoms: _1001  and  _1002
REMARK  397  A    between atoms: _1002  and  _1003
REMARK  398  A    between atoms: _1003  and  _1004
REMARK  399  A    between atoms: _1013  and  _1015
REMARK  400  A    between atoms: _1015  and  _1016
REMARK  401  A    between atoms: _1015  and  _1018
REMARK  402  A    between atoms: _1018  and  _1019
REMARK  403  A    between atoms: _1021  and  _1023
REMARK  404  A    between atoms: _1023  and  _1024
REMARK  405  A    between atoms: _1027  and  _1029
REMARK  406  A    between atoms: _1029  and  _1030
REMARK  407  A    between atoms: _1029  and  _1032
REMARK  408  A    between atoms: _1032  and  _1033
REMARK  409  A    between atoms: _1036  and  _1038
REMARK  410  A    between atoms: _1038  and  _1039
REMARK  411  A    between atoms: _1038  and  _1041
REMARK  412  A    between atoms: _1041  and  _1042
REMARK  413  A    between atoms: _1042  and  _1043
REMARK  414  A    between atoms: _1043  and  _1044
REMARK  415  A    between atoms: _1053  and  _1055
REMARK  416  A    between atoms: _1055  and  _1056
REMARK  417  A    between atoms: _1055  and  _1058
REMARK  418  A    between atoms: _1061  and  _1063
REMARK  419  A    between atoms: _1063  and  _1064
REMARK  420  A    between atoms: _1066  and  _1068
REMARK  421  A    between atoms: _1068  and  _1069
REMARK  422  A    between atoms: _1068  and  _1071
REMARK  423  A    between atoms: _1071  and  _1072
REMARK                            x       y       z     vdW  Elec       q    Type
REMARK                         _______ _______ _______ _____ _____    ______ ____
ROOT
ATOM      1  O   HOH     1      19.487  40.355  56.295  0.00  0.00    +0.000 OA
ENDROOT
TORSDOF 0
REMARK  Name = ../refined-set-2016/1fo0/1fo0_pocket.pdb
REMARK  423 active torsions:
REMARK  status: ('A' for Active; 'I' for Inactive)
REMARK    1  A    between atoms: _1  and  _3
REMARK    2  A    between atoms: _3  and  _4
REMARK    3  A    between atoms: _3  and  _6
REMARK    4  A    between atoms: _6  and  _7
REMARK    5  A    between atoms: _10  and  _12
REMARK    6  A    between atoms: _12  and  _13
REMARK    7  A    between atoms: _12  and  _15
REMARK    8  A    between atoms: _15  and  _16
REMARK    9  A    between atoms: _16  and  _17
REMARK   10  A    between atoms: _17  and  _18
REMARK   11  A    between atoms: _27  and  _29
REMARK   12  A    between atoms: _29  and  _30
REMARK   13  A    between atoms: _29  and  _32
REMARK   14  A    between atoms: _32  and  _33
REMARK   15  A    between atoms: _38  and  _39
REMARK   16  A    between atoms: _41  and  _43
REMARK   17  A    between atoms: _43  and  _44
REMARK   18  A    between atoms: _43  and  _46
REMARK   19  A    between atoms: _46  and  _47
REMARK   20  A    between atoms: _53  and  _55
REMARK   21  A    between atoms: _55  and  _56
REMARK   22  A    between atoms: _55  and  _58
REMARK   23  A    between atoms: _61  and  _63
REMARK   24  A    between atoms: _63  and  _64
REMARK   25  A    between atoms: _63  and  _66
REMARK   26  A    between atoms: _66  and  _67
REMARK   27  A    between atoms: _70  and  _72
REMARK   28  A    between atoms: _72  and  _73
REMARK   29  A    between atoms: _72  and  _75
REMARK   30  A    between atoms: _75  and  _76
REMARK   31  A    between atoms: _81  and  _82
REMARK   32  A    between atoms: _84  and  _86
REMARK   33  A    between atoms: _86  and  _87
REMARK   34  A    between atoms: _86  and  _89
REMARK   35  A    between atoms: _89  and  _90
REMARK   36  A    between atoms: _90  and  _91
REMARK   37  A    between atoms: _93  and  _95
REMARK   38  A    between atoms: _95  and  _96
REMARK   39  A    between atoms: _95  and  _98
REMARK   40  A    between atoms: _98  and  _99
REMARK   41  A    between atoms: _99  and  _100
REMARK   42  A    between atoms: _103  and  _105
REMARK   43  A    between atoms: _105  and  _106
REMARK   44  A    between atoms: _105  and  _108
REMARK   45  A    between atoms: _111  and  _113
REMARK   46  A    between atoms: _113  and  _114
REMARK   47  A    between atoms: _116  and  _118
REMARK   48  A    between atoms: _118  and  _119
REMARK   49  A    between atoms: _118  and  _121
REMARK   50  A    between atoms: _121  and  _122
REMARK   51  A    between atoms: _128  and  _130
REMARK   52  A    between atoms: _130  and  _131
REMARK   53  A    between atoms: _130  and  _133
REMARK   54  A    between atoms: _136  and  _138
REMARK   55  A    between atoms: _138  and  _139
REMARK   56  A    between atoms: _138  and  _141
REMARK   57  A    between atoms: _141  and  _142
REMARK   58  A    between atoms: _148  and  _150
REMARK   59  A    between atoms: _150  and  _151
REMARK   60  A    between atoms: _150  and  _153
REMARK   61  A    between atoms: _153  and  _154
REMARK   62  A    between atoms: _159  and  _160
REMARK   63  A    between atoms: _162  and  _164
REMARK   64  A    between atoms: _164  and  _165
REMARK   65  A    between atoms: _164  and  _167
REMARK   66  A    between atoms: _167  and  _168
REMARK   67  A    between atoms: _168  and  _169
REMARK   68  A    between atoms: _171  and  _173
REMARK   69  A    between atoms: _173  and  _174
REMARK   70  A    between atoms: _173  and  _176
REMARK   71  A    between atoms: _176  and  _177
REMARK   72  A    between atoms: _177  and  _178
REMARK   73  A    between atoms: _181  and  _183
REMARK   74  A    between atoms: _183  and  _184
REMARK   75  A    between atoms: _183  and  _186
REMARK   76  A    between atoms: _186  and  _187
REMARK   77  A    between atoms: _192  and  _193
REMARK   78  A    between atoms: _195  and  _197
REMARK   79  A    between atoms: _197  and  _198
REMARK   80  A    between atoms: _197  and  _200
REMARK   81  A    between atoms: _200  and  _201
REMARK   82  A    between atoms: _201  and  _202
REMARK   83  A    between atoms: _202  and  _203
REMARK   84  A    between atoms: _212  and  _214
REMARK   85  A    between atoms: _214  and  _215
REMARK   86  A    between atoms: _214  and  _217
REMARK   87  A    between atoms: _217  and  _218
REMARK   88  A    between atoms: _218  and  _219
REMARK   89  A    between atoms: _222  and  _224
REMARK   90  A    between atoms: _224  and  _225
REMARK   91  A    between atoms: _224  and  _227
REMARK   92  A    between atoms: _227  and  _228
REMARK   93  A    between atoms: _228  and  _229
REMARK   94  A    between atoms: _234  and  _236
REMARK   95  A    between atoms: _236  and  _237
REMARK   96  A    between atoms: _236  and  _239
REMARK   97  A    between atoms: _239  and  _240
REMARK   98  A    between atoms: _240  and  _241
REMARK   99  A    between atoms: _241  and  _242
REMARK  100  A    between atoms: _242  and  _243
REMARK  101  A    between atoms: _247  and  _249
REMARK  102  A    between atoms: _249  and  _250
REMARK  103  A    between atoms: _253  and  _255
REMARK  104  A    between atoms: _255  and  _256
REMARK  105  A    between atoms: _255  and  _258
REMARK  106  A    between atoms: _258  and  _259
REMARK  107  A    between atoms: _259  and  _260
REMARK  108  A    between atoms: _260  and  _261
REMARK  109  A    between atoms: _261  and  _262
REMARK  110  A    between atoms: _266  and  _268
REMARK  111  A    between atoms: _268  and  _269
REMARK  112  A    between atoms: _271  and  _273
REMARK  113  A    between atoms: _273  and  _274
REMARK  114  A    between atoms: _273  and  _276
REMARK  115  A    between atoms: _276  and  _277
REMARK  116  A    between atoms: _282  and  _284
REMARK  117  A    between atoms: _284  and  _285
REMARK  118  A    between atoms: _284  and  _287
REMARK  119  A    between atoms: _287  and  _288
REMARK  120  A    between atoms: _288  and  _289
REMARK  121  A    between atoms: _292  and  _294
REMARK  122  A    between atoms: _294  and  _295
REMARK  123  A    between atoms: _294  and  _297
REMARK  124  A    between atoms: _297  and  _298
REMARK  125  A    between atoms: _298  and  _299
REMARK  126  A    between atoms: _304  and  _306
REMARK  127  A    between atoms: _306  and  _307
REMARK  128  A    between atoms: _306  and  _309
REMARK  129  A    between atoms: _309  and  _310
REMARK  130  A    between atoms: _312  and  _314
REMARK  131  A    between atoms: _314  and  _315
REMARK  132  A    between atoms: _314  and  _317
REMARK  133  A    between atoms: _317  and  _318
REMARK  134  A    between atoms: _324  and  _326
REMARK  135  A    between atoms: _326  and  _327
REMARK  136  A    between atoms: _326  and  _329
REMARK  137  A    between atoms: _329  and  _330
REMARK  138  A    between atoms: _330  and  _331
REMARK  139  A    between atoms: _331  and  _332
REMARK  140  A    between atoms: _341  and  _343
REMARK  141  A    between atoms: _343  and  _344
REMARK  142  A    between atoms: _343  and  _346
REMARK  143  A    between atoms: _349  and  _351
REMARK  144  A    between atoms: _351  and  _352
REMARK  145  A    between atoms: _351  and  _354
REMARK  146  A    between atoms: _354  and  _355
REMARK  147  A    between atoms: _358  and  _360
REMARK  148  A    between atoms: _360  and  _361
REMARK  149  A    between atoms: _360  and  _363
REMARK  150  A    between atoms: _363  and  _364
REMARK  151  A    between atoms: _367  and  _369
REMARK  152  A    between atoms: _369  and  _370
REMARK  153  A    between atoms: _369  and  _372
REMARK  154  A    between atoms: _372  and  _373
REMARK  155  A    between atoms: _373  and  _374
REMARK  156  A    between atoms: _374  and  _375
REMARK  157  A    between atoms: _384  and  _386
REMARK  158  A    between atoms: _386  and  _387
REMARK  159  A    between atoms: _386  and  _389
REMARK  160  A    between atoms: _389  and  _390
REMARK  161  A    between atoms: _393  and  _395
REMARK  162  A    between atoms: _395  and  _396
REMARK  163  A    between atoms: _395  and  _398
REMARK  164  A    between atoms: _398  and  _399
REMARK  165  A    between atoms: _402  and  _404
REMARK  166  A    between atoms: _404  and  _405
REMARK  167  A    between atoms: _404  and  _407
REMARK  168  A    between atoms: _407  and  _408
REMARK  169  A    between atoms: _411  and  _413
REMARK  170  A    between atoms: _413  and  _414
REMARK  171  A    between atoms: _413  and  _416
REMARK  172  A    between atoms: _416  and  _417
REMARK  173  A    between atoms: _422  and  _423
REMARK  174  A    between atoms: _425  and  _427
REMARK  175  A    between atoms: _427  and  _428
REMARK  176  A    between atoms: _427  and  _430
REMARK  177  A    between atoms: _430  and  _431
REMARK  178  A    between atoms: _436  and  _437
REMARK  179  A    between atoms: _439  and  _441
REMARK  180  A    between atoms: _441  and  _442
REMARK  181  A    between atoms: _441  and  _444
REMARK  182  A    between atoms: _444  and  _445
REMARK  183  A    between atoms: _448  and  _450
REMARK  184  A    between atoms: _450  and  _451
REMARK  185  A    between atoms: _450  and  _453
REMARK  186  A    between atoms: _456  and  _458
REMARK  187  A    between atoms: _458  and  _459
REMARK  188  A    between atoms: _458  and  _461
REMARK  189  A    between atoms: _461  and  _462
REMARK  190  A    between atoms: _465  and  _467
REMARK  191  A    between atoms: _467  and  _468
REMARK  192  A    between atoms: _467  and  _470
REMARK  193  A    between atoms: _470  and  _471
REMARK  194  A    between atoms: _473  and  _475
REMARK  195  A    between atoms: _475  and  _476
REMARK  196  A    between atoms: _478  and  _480
REMARK  197  A    between atoms: _480  and  _481
REMARK  198  A    between atoms: _480  and  _483
REMARK  199  A    between atoms: _483  and  _484
REMARK  200  A    between atoms: _489  and  _490
REMARK  201  A    between atoms: _492  and  _494
REMARK  202  A    between atoms: _494  and  _495
REMARK  203  A    between atoms: _494  and  _497
REMARK  204  A    between atoms: _497  and  _498
REMARK  205  A    between atoms: _498  and  _499
REMARK  206  A    between atoms: _504  and  _506
REMARK  207  A    between atoms: _506  and  _507
REMARK  208  A    between atoms: _506  and  _509
REMARK  209  A    between atoms: _509  and  _510
REMARK  210  A    between atoms: _510  and  _511
REMARK  211  A    between atoms: _516  and  _518
REMARK  212  A    between atoms: _518  and  _519
REMARK  213  A    between atoms: _518  and  _521
REMARK  214  A    between atoms: _521  and  _522
REMARK  215  A    between atoms: _527  and  _528
REMARK  216  A    between atoms: _530  and  _532
REMARK  217  A    between atoms: _532  and  _533
REMARK  218  A    between atoms: _532  and  _535
REMARK  219  A    between atoms: _535  and  _536
REMARK  220  A    between atoms: _541  and  _542
REMARK  221  A    between atoms: _544  and  _546
REMARK  222  A    between atoms: _546  and  _547
REMARK  223  A    between atoms: _546  and  _549
REMARK  224  A    between atoms: _549  and  _550
REMARK  225  A    between atoms: _555  and  _556
REMARK  226  A    between atoms: _558  and  _560
REMARK  227  A    between atoms: _560  and  _561
REMARK  228  A    between atoms: _560  and  _563
REMARK  229  A    between atoms: _563  and  _564
REMARK  230  A    between atoms: _567  and  _569
REMARK  231  A    between atoms: _569  and  _570
REMARK  232  A    between atoms: _569  and  _572
REMARK  233  A    between atoms: _572  and  _573
REMARK  234  A    between atoms: _583  and  _585
REMARK  235  A    between atoms: _585  and  _586
REMARK  236  A    between atoms: _589  and  _591
REMARK  237  A    between atoms: _591  and  _592
REMARK  238  A    between atoms: _595  and  _597
REMARK  239  A    between atoms: _597  and  _598
REMARK  240  A    between atoms: _597  and  _600
REMARK  241  A    between atoms: _600  and  _601
REMARK  242  A    between atoms: _604  and  _606
REMARK  243  A    between atoms: _606  and  _607
REMARK  244  A    between atoms: _606  and  _609
REMARK  245  A    between atoms: _609  and  _610
REMARK  246  A    between atoms: _613  and  _615
REMARK  247  A    between atoms: _615  and  _616
REMARK  248  A    between atoms: _615  and  _618
REMARK  249  A    between atoms: _618  and  _619
REMARK  250  A    between atoms: _622  and  _624
REMARK  251  A    between atoms: _624  and  _625
REMARK  252  A    between atoms: _624  and  _627
REMARK  253  A    between atoms: _627  and  _628
REMARK  254  A    between atoms: _628  and  _629
REMARK  255  A    between atoms: _629  and  _630
REMARK  256  A    between atoms: _630  and  _631
REMARK  257  A    between atoms: _635  and  _637
REMARK  258  A    between atoms: _637  and  _638
REMARK  259  A    between atoms: _637  and  _640
REMARK  260  A    between atoms: _640  and  _641
REMARK  261  A    between atoms: _646  and  _648
REMARK  262  A    between atoms: _648  and  _649
REMARK  263  A    between atoms: _648  and  _651
REMARK  264  A    between atoms: _651  and  _652
REMARK  265  A    between atoms: _652  and  _653
REMARK  266  A    between atoms: _653  and  _654
REMARK  267  A    between atoms: _654  and  _655
REMARK  268  A    between atoms: _659  and  _661
REMARK  269  A    between atoms: _661  and  _662
REMARK  270  A    between atoms: _661  and  _664
REMARK  271  A    between atoms: _664  and  _665
REMARK  272  A    between atoms: _675  and  _677
REMARK  273  A    between atoms: _677  and  _678
REMARK  274  A    between atoms: _681  and  _683
REMARK  275  A    between atoms: _683  and  _684
REMARK  276  A    between atoms: _686  and  _688
REMARK  277  A    between atoms: _688  and  _689
REMARK  278  A    between atoms: _688  and  _691
REMARK  279  A    between atoms: _691  and  _692
REMARK  280  A    between atoms: _692  and  _693
REMARK  281  A    between atoms: _696  and  _698
REMARK  282  A    between atoms: _698  and  _699
REMARK  283  A    between atoms: _702  and  _704
REMARK  284  A    between atoms: _704  and  _705
REMARK  285  A    between atoms: _704  and  _707
REMARK  286  A    between atoms: _707  and  _708
REMARK  287  A    between atoms: _708  and  _709
REMARK  288  A    between atoms: _712  and  _714
REMARK  289  A    between atoms: _714  and  _715
REMARK  290  A    between atoms: _714  and  _717
REMARK  291  A    between atoms: _717  and  _718
REMARK  292  A    between atoms: _718  and  _719
REMARK  293  A    between atoms: _719  and  _720
REMARK  294  A    between atoms: _729  and  _731
REMARK  295  A    between atoms: _731  and  _732
REMARK  296  A    between atoms: _731  and  _734
REMARK  297  A    between atoms: _734  and  _735
REMARK  298  A    between atoms: _738  and  _740
REMARK  299  A    between atoms: _740  and  _741
REMARK  300  A    between atoms: _740  and  _743
REMARK  301  A    between atoms: _743  and  _744
REMARK  302  A    between atoms: _744  and  _745
REMARK  303  A    between atoms: _745  and  _746
REMARK  304  A    between atoms: _755  and  _757
REMARK  305  A    between atoms: _757  and  _758
REMARK  306  A    between atoms: _761  and  _763
REMARK  307  A    between atoms: _763  and  _764
REMARK  308  A    between atoms: _763  and  _766
REMARK  309  A    between atoms: _766  and  _767
REMARK  310  A    between atoms: _772  and  _773
REMARK  311  A    between atoms: _775  and  _777
REMARK  312  A    between atoms: _777  and  _778
REMARK  313  A    between atoms: _777  and  _780
REMARK  314  A    between atoms: _780  and  _781
REMARK  315  A    between atoms: _784  and  _786
REMARK  316  A    between atoms: _786  and  _787
REMARK  317  A    between atoms: _786  and  _789
REMARK  318  A    between atoms: _789  and  _790
REMARK  319  A    between atoms: _793  and  _795
REMARK  320  A    between atoms: _795  and  _796
REMARK  321  A    between atoms: _795  and  _798
REMARK  322  A    between atoms: _800  and  _802
REMARK  323  A    between atoms: _802  and  _803
REMARK  324  A    between atoms: _802  and  _805
REMARK  325  A    between atoms: _808  and  _810
REMARK  326  A    between atoms: _810  and  _811
REMARK  327  A    between atoms: _810  and  _813
REMARK  328  A    between atoms: _813  and  _814
REMARK  329  A    between atoms: _814  and  _815
REMARK  330  A    between atoms: _818  and  _820
REMARK  331  A    between atoms: _820  and  _821
REMARK  332  A    between atoms: _820  and  _823
REMARK  333  A    between atoms: _823  and  _824
REMARK  334  A    between atoms: _834  and  _836
REMARK  335  A    between atoms: _836  and  _837
REMARK  336  A    between atoms: _836  and  _839
REMARK  337  A    between atoms: _839  and  _840
REMARK  338  A    between atoms: _843  and  _845
REMARK  339  A    between atoms: _845  and  _846
REMARK  340  A    between atoms: _845  and  _848
REMARK  341  A    between atoms: _848  and  _849
REMARK  342  A    between atoms: _849  and  _850
REMARK  343  A    between atoms: _850  and  _851
REMARK  344  A    between atoms: _860  and  _862
REMARK  345  A    between atoms: _862  and  _863
REMARK  346  A    between atoms: _862  and  _865
REMARK  347  A    between atoms: _865  and  _866
REMARK  348  A    between atoms: _871  and  _872
REMARK  349  A    between atoms: _874  and  _876
REMARK  350  A    between atoms: _876  and  _877
REMARK  351  A    between atoms: _876  and  _879
REMARK  352  A    between atoms: _879  and  _880
REMARK  353  A    between atoms: _880  and  _881
REMARK  354  A    between atoms: _886  and  _888
REMARK  355  A    between atoms: _888  and  _889
REMARK  356  A    between atoms: _888  and  _891
REMARK  357  A    between atoms: _891  and  _892
REMARK  358  A    between atoms: _895  and  _897
REMARK  359  A    between atoms: _897  and  _898
REMARK  360  A    between atoms: _897  and  _900
REMARK  361  A    between atoms: _900  and  _901
REMARK  362  A    between atoms: _903  and  _905
REMARK  363  A    between atoms: _905  and  _906
REMARK  364  A    between atoms: _905  and  _908
REMARK  365  A    between atoms: _908  and  _909
REMARK  366  A    between atoms: _911  and  _913
REMARK  367  A    between atoms: _913  and  _914
REMARK  368  A    between atoms: _913  and  _916
REMARK  369  A    between atoms: _916  and  _917
REMARK  370  A    between atoms: _923  and  _925
REMARK  371  A    between atoms: _925  and  _926
REMARK  372  A    between atoms: _925  and  _928
REMARK  373  A    between atoms: _928  and  _929
REMARK  374  A    between atoms: _929  and  _930
REMARK  375  A    between atoms: _930  and  _931
REMARK  376  A    between atoms: _940  and  _942
REMARK  377  A    between atoms: _942  and  _943
REMARK  378  A    between atoms: _942  and  _945
REMARK  379  A    between atoms: _945  and  _946
REMARK  380  A    between atoms: _946  and  _947
REMARK  381  A    between atoms: _947  and  _948
REMARK  382  A    between atoms: _957  and  _959
REMARK  383  A    between atoms: _959  and  _960
REMARK  384  A    between atoms: _962  and  _964
REMARK  385  A    between atoms: _964  and  _965
REMARK  386  A    between atoms: _964  and  _967
REMARK  387  A    between atoms: _967  and  _968
REMARK  388  A    between atoms: _974  and  _975
REMARK  389  A    between atoms: _980  and  _982
REMARK  390  A    between atoms: _982  and  _983
REMARK  391  A    between atoms: _982  and  _985
REMARK  392  A    between atoms: _985  and  _986
REMARK  393  A    between atoms: _996  and  _998
REMARK  394  A    between atoms: _998  and  _999
REMARK  395  A    between atoms: _998  and  _1001
REMARK  396  A    between atoms: _1001  and  _1002
REMARK  397  A    between atoms: _1002  and  _1003
REMARK  398  A    between atoms: _1003  and  _1004
REMARK  399  A    between atoms: _1013  and  _1015
REMARK  400  A    between atoms: _1015  and  _1016
REMARK  401  A    between atoms: _1015  and  _1018
REMARK  402  A    between atoms: _1018  and  _1019
REMARK  403  A    between atoms: _1021  and  _1023
REMARK  404  A    between atoms: _1023  and  _1024
REMARK  405  A    between atoms: _1027  and  _1029
REMARK  406  A    between atoms: _1029  and  _1030
REMARK  407  A    between atoms: _1029  and  _1032
REMARK  408  A    between atoms: _1032  and  _1033
REMARK  409  A    between atoms: _1036  and  _1038
REMARK  410  A    between atoms: _1038  and  _1039
REMARK  411  A    between atoms: _1038  and  _1041
REMARK  412  A    between atoms: _1041  and  _1042
REMARK  413  A    between atoms: _1042  and  _1043
REMARK  414  A    between atoms: _1043  and  _1044
REMARK  415  A    between atoms: _1053  and  _1055
REMARK  416  A    between atoms: _1055  and  _1056
REMARK  417  A    between atoms: _1055  and  _1058
REMARK  418  A    between atoms: _1061  and  _1063
REMARK  419  A    between atoms: _1063  and  _1064
REMARK  420  A    between atoms: _1066  and  _1068
REMARK  421  A    between atoms: _1068  and  _1069
REMARK  422  A    between atoms: _1068  and  _1071
REMARK  423  A    between atoms: _1071  and  _1072
REMARK                            x       y       z     vdW  Elec       q    Type
REMARK                         _______ _______ _______ _____ _____    ______ ____
ROOT
ATOM      1  O   HOH     1      27.983  43.381  54.045  0.00  0.00    +0.000 OA
ENDROOT
TORSDOF 0
REMARK  Name = ../refined-set-2016/1fo0/1fo0_pocket.pdb
REMARK  423 active torsions:
REMARK  status: ('A' for Active; 'I' for Inactive)
REMARK    1  A    between atoms: _1  and  _3
REMARK    2  A    between atoms: _3  and  _4
REMARK    3  A    between atoms: _3  and  _6
REMARK    4  A    between atoms: _6  and  _7
REMARK    5  A    between atoms: _10  and  _12
REMARK    6  A    between atoms: _12  and  _13
REMARK    7  A    between atoms: _12  and  _15
REMARK    8  A    between atoms: _15  and  _16
REMARK    9  A    between atoms: _16  and  _17
REMARK   10  A    between atoms: _17  and  _18
REMARK   11  A    between atoms: _27  and  _29
REMARK   12  A    between atoms: _29  and  _30
REMARK   13  A    between atoms: _29  and  _32
REMARK   14  A    between atoms: _32  and  _33
REMARK   15  A    between atoms: _38  and  _39
REMARK   16  A    between atoms: _41  and  _43
REMARK   17  A    between atoms: _43  and  _44
REMARK   18  A    between atoms: _43  and  _46
REMARK   19  A    between atoms: _46  and  _47
REMARK   20  A    between atoms: _53  and  _55
REMARK   21  A    between atoms: _55  and  _56
REMARK   22  A    between atoms: _55  and  _58
REMARK   23  A    between atoms: _61  and  _63
REMARK   24  A    between atoms: _63  and  _64
REMARK   25  A    between atoms: _63  and  _66
REMARK   26  A    between atoms: _66  and  _67
REMARK   27  A    between atoms: _70  and  _72
REMARK   28  A    between atoms: _72  and  _73
REMARK   29  A    between atoms: _72  and  _75
REMARK   30  A    between atoms: _75  and  _76
REMARK   31  A    between atoms: _81  and  _82
REMARK   32  A    between atoms: _84  and  _86
REMARK   33  A    between atoms: _86  and  _87
REMARK   34  A    between atoms: _86  and  _89
REMARK   35  A    between atoms: _89  and  _90
REMARK   36  A    between atoms: _90  and  _91
REMARK   37  A    between atoms: _93  and  _95
REMARK   38  A    between atoms: _95  and  _96
REMARK   39  A    between atoms: _95  and  _98
REMARK   40  A    between atoms: _98  and  _99
REMARK   41  A    between atoms: _99  and  _100
REMARK   42  A    between atoms: _103  and  _105
REMARK   43  A    between atoms: _105  and  _106
REMARK   44  A    between atoms: _105  and  _108
REMARK   45  A    between atoms: _111  and  _113
REMARK   46  A    between atoms: _113  and  _114
REMARK   47  A    between atoms: _116  and  _118
REMARK   48  A    between atoms: _118  and  _119
REMARK   49  A    between atoms: _118  and  _121
REMARK   50  A    between atoms: _121  and  _122
REMARK   51  A    between atoms: _128  and  _130
REMARK   52  A    between atoms: _130  and  _131
REMARK   53  A    between atoms: _130  and  _133
REMARK   54  A    between atoms: _136  and  _138
REMARK   55  A    between atoms: _138  and  _139
REMARK   56  A    between atoms: _138  and  _141
REMARK   57  A    between atoms: _141  and  _142
REMARK   58  A    between atoms: _148  and  _150
REMARK   59  A    between atoms: _150  and  _151
REMARK   60  A    between atoms: _150  and  _153
REMARK   61  A    between atoms: _153  and  _154
REMARK   62  A    between atoms: _159  and  _160
REMARK   63  A    between atoms: _162  and  _164
REMARK   64  A    between atoms: _164  and  _165
REMARK   65  A    between atoms: _164  and  _167
REMARK   66  A    between atoms: _167  and  _168
REMARK   67  A    between atoms: _168  and  _169
REMARK   68  A    between atoms: _171  and  _173
REMARK   69  A    between atoms: _173  and  _174
REMARK   70  A    between atoms: _173  and  _176
REMARK   71  A    between atoms: _176  and  _177
REMARK   72  A    between atoms: _177  and  _178
REMARK   73  A    between atoms: _181  and  _183
REMARK   74  A    between atoms: _183  and  _184
REMARK   75  A    between atoms: _183  and  _186
REMARK   76  A    between atoms: _186  and  _187
REMARK   77  A    between atoms: _192  and  _193
REMARK   78  A    between atoms: _195  and  _197
REMARK   79  A    between atoms: _197  and  _198
REMARK   80  A    between atoms: _197  and  _200
REMARK   81  A    between atoms: _200  and  _201
REMARK   82  A    between atoms: _201  and  _202
REMARK   83  A    between atoms: _202  and  _203
REMARK   84  A    between atoms: _212  and  _214
REMARK   85  A    between atoms: _214  and  _215
REMARK   86  A    between atoms: _214  and  _217
REMARK   87  A    between atoms: _217  and  _218
REMARK   88  A    between atoms: _218  and  _219
REMARK   89  A    between atoms: _222  and  _224
REMARK   90  A    between atoms: _224  and  _225
REMARK   91  A    between atoms: _224  and  _227
REMARK   92  A    between atoms: _227  and  _228
REMARK   93  A    between atoms: _228  and  _229
REMARK   94  A    between atoms: _234  and  _236
REMARK   95  A    between atoms: _236  and  _237
REMARK   96  A    between atoms: _236  and  _239
REMARK   97  A    between atoms: _239  and  _240
REMARK   98  A    between atoms: _240  and  _241
REMARK   99  A    between atoms: _241  and  _242
REMARK  100  A    between atoms: _242  and  _243
REMARK  101  A    between atoms: _247  and  _249
REMARK  102  A    between atoms: _249  and  _250
REMARK  103  A    between atoms: _253  and  _255
REMARK  104  A    between atoms: _255  and  _256
REMARK  105  A    between atoms: _255  and  _258
REMARK  106  A    between atoms: _258  and  _259
REMARK  107  A    between atoms: _259  and  _260
REMARK  108  A    between atoms: _260  and  _261
REMARK  109  A    between atoms: _261  and  _262
REMARK  110  A    between atoms: _266  and  _268
REMARK  111  A    between atoms: _268  and  _269
REMARK  112  A    between atoms: _271  and  _273
REMARK  113  A    between atoms: _273  and  _274
REMARK  114  A    between atoms: _273  and  _276
REMARK  115  A    between atoms: _276  and  _277
REMARK  116  A    between atoms: _282  and  _284
REMARK  117  A    between atoms: _284  and  _285
REMARK  118  A    between atoms: _284  and  _287
REMARK  119  A    between atoms: _287  and  _288
REMARK  120  A    between atoms: _288  and  _289
REMARK  121  A    between atoms: _292  and  _294
REMARK  122  A    between atoms: _294  and  _295
REMARK  123  A    between atoms: _294  and  _297
REMARK  124  A    between atoms: _297  and  _298
REMARK  125  A    between atoms: _298  and  _299
REMARK  126  A    between atoms: _304  and  _306
REMARK  127  A    between atoms: _306  and  _307
REMARK  128  A    between atoms: _306  and  _309
REMARK  129  A    between atoms: _309  and  _310
REMARK  130  A    between atoms: _312  and  _314
REMARK  131  A    between atoms: _314  and  _315
REMARK  132  A    between atoms: _314  and  _317
REMARK  133  A    between atoms: _317  and  _318
REMARK  134  A    between atoms: _324  and  _326
REMARK  135  A    between atoms: _326  and  _327
REMARK  136  A    between atoms: _326  and  _329
REMARK  137  A    between atoms: _329  and  _330
REMARK  138  A    between atoms: _330  and  _331
REMARK  139  A    between atoms: _331  and  _332
REMARK  140  A    between atoms: _341  and  _343
REMARK  141  A    between atoms: _343  and  _344
REMARK  142  A    between atoms: _343  and  _346
REMARK  143  A    between atoms: _349  and  _351
REMARK  144  A    between atoms: _351  and  _352
REMARK  145  A    between atoms: _351  and  _354
REMARK  146  A    between atoms: _354  and  _355
REMARK  147  A    between atoms: _358  and  _360
REMARK  148  A    between atoms: _360  and  _361
REMARK  149  A    between atoms: _360  and  _363
REMARK  150  A    between atoms: _363  and  _364
REMARK  151  A    between atoms: _367  and  _369
REMARK  152  A    between atoms: _369  and  _370
REMARK  153  A    between atoms: _369  and  _372
REMARK  154  A    between atoms: _372  and  _373
REMARK  155  A    between atoms: _373  and  _374
REMARK  156  A    between atoms: _374  and  _375
REMARK  157  A    between atoms: _384  and  _386
REMARK  158  A    between atoms: _386  and  _387
REMARK  159  A    between atoms: _386  and  _389
REMARK  160  A    between atoms: _389  and  _390
REMARK  161  A    between atoms: _393  and  _395
REMARK  162  A    between atoms: _395  and  _396
REMARK  163  A    between atoms: _395  and  _398
REMARK  164  A    between atoms: _398  and  _399
REMARK  165  A    between atoms: _402  and  _404
REMARK  166  A    between atoms: _404  and  _405
REMARK  167  A    between atoms: _404  and  _407
REMARK  168  A    between atoms: _407  and  _408
REMARK  169  A    between atoms: _411  and  _413
REMARK  170  A    between atoms: _413  and  _414
REMARK  171  A    between atoms: _413  and  _416
REMARK  172  A    between atoms: _416  and  _417
REMARK  173  A    between atoms: _422  and  _423
REMARK  174  A    between atoms: _425  and  _427
REMARK  175  A    between atoms: _427  and  _428
REMARK  176  A    between atoms: _427  and  _430
REMARK  177  A    between atoms: _430  and  _431
REMARK  178  A    between atoms: _436  and  _437
REMARK  179  A    between atoms: _439  and  _441
REMARK  180  A    between atoms: _441  and  _442
REMARK  181  A    between atoms: _441  and  _444
REMARK  182  A    between atoms: _444  and  _445
REMARK  183  A    between atoms: _448  and  _450
REMARK  184  A    between atoms: _450  and  _451
REMARK  185  A    between atoms: _450  and  _453
REMARK  186  A    between atoms: _456  and  _458
REMARK  187  A    between atoms: _458  and  _459
REMARK  188  A    between atoms: _458  and  _461
REMARK  189  A    between atoms: _461  and  _462
REMARK  190  A    between atoms: _465  and  _467
REMARK  191  A    between atoms: _467  and  _468
REMARK  192  A    between atoms: _467  and  _470
REMARK  193  A    between atoms: _470  and  _471
REMARK  194  A    between atoms: _473  and  _475
REMARK  195  A    between atoms: _475  and  _476
REMARK  196  A    between atoms: _478  and  _480
REMARK  197  A    between atoms: _480  and  _481
REMARK  198  A    between atoms: _480  and  _483
REMARK  199  A    between atoms: _483  and  _484
REMARK  200  A    between atoms: _489  and  _490
REMARK  201  A    between atoms: _492  and  _494
REMARK  202  A    between atoms: _494  and  _495
REMARK  203  A    between atoms: _494  and  _497
REMARK  204  A    between atoms: _497  and  _498
REMARK  205  A    between atoms: _498  and  _499
REMARK  206  A    between atoms: _504  and  _506
REMARK  207  A    between atoms: _506  and  _507
REMARK  208  A    between atoms: _506  and  _509
REMARK  209  A    between atoms: _509  and  _510
REMARK  210  A    between atoms: _510  and  _511
REMARK  211  A    between atoms: _516  and  _518
REMARK  212  A    between atoms: _518  and  _519
REMARK  213  A    between atoms: _518  and  _521
REMARK  214  A    between atoms: _521  and  _522
REMARK  215  A    between atoms: _527  and  _528
REMARK  216  A    between atoms: _530  and  _532
REMARK  217  A    between atoms: _532  and  _533
REMARK  218  A    between atoms: _532  and  _535
REMARK  219  A    between atoms: _535  and  _536
REMARK  220  A    between atoms: _541  and  _542
REMARK  221  A    between atoms: _544  and  _546
REMARK  222  A    between atoms: _546  and  _547
REMARK  223  A    between atoms: _546  and  _549
REMARK  224  A    between atoms: _549  and  _550
REMARK  225  A    between atoms: _555  and  _556
REMARK  226  A    between atoms: _558  and  _560
REMARK  227  A    between atoms: _560  and  _561
REMARK  228  A    between atoms: _560  and  _563
REMARK  229  A    between atoms: _563  and  _564
REMARK  230  A    between atoms: _567  and  _569
REMARK  231  A    between atoms: _569  and  _570
REMARK  232  A    between atoms: _569  and  _572
REMARK  233  A    between atoms: _572  and  _573
REMARK  234  A    between atoms: _583  and  _585
REMARK  235  A    between atoms: _585  and  _586
REMARK  236  A    between atoms: _589  and  _591
REMARK  237  A    between atoms: _591  and  _592
REMARK  238  A    between atoms: _595  and  _597
REMARK  239  A    between atoms: _597  and  _598
REMARK  240  A    between atoms: _597  and  _600
REMARK  241  A    between atoms: _600  and  _601
REMARK  242  A    between atoms: _604  and  _606
REMARK  243  A    between atoms: _606  and  _607
REMARK  244  A    between atoms: _606  and  _609
REMARK  245  A    between atoms: _609  and  _610
REMARK  246  A    between atoms: _613  and  _615
REMARK  247  A    between atoms: _615  and  _616
REMARK  248  A    between atoms: _615  and  _618
REMARK  249  A    between atoms: _618  and  _619
REMARK  250  A    between atoms: _622  and  _624
REMARK  251  A    between atoms: _624  and  _625
REMARK  252  A    between atoms: _624  and  _627
REMARK  253  A    between atoms: _627  and  _628
REMARK  254  A    between atoms: _628  and  _629
REMARK  255  A    between atoms: _629  and  _630
REMARK  256  A    between atoms: _630  and  _631
REMARK  257  A    between atoms: _635  and  _637
REMARK  258  A    between atoms: _637  and  _638
REMARK  259  A    between atoms: _637  and  _640
REMARK  260  A    between atoms: _640  and  _641
REMARK  261  A    between atoms: _646  and  _648
REMARK  262  A    between atoms: _648  and  _649
REMARK  263  A    between atoms: _648  and  _651
REMARK  264  A    between atoms: _651  and  _652
REMARK  265  A    between atoms: _652  and  _653
REMARK  266  A    between atoms: _653  and  _654
REMARK  267  A    between atoms: _654  and  _655
REMARK  268  A    between atoms: _659  and  _661
REMARK  269  A    between atoms: _661  and  _662
REMARK  270  A    between atoms: _661  and  _664
REMARK  271  A    between atoms: _664  and  _665
REMARK  272  A    between atoms: _675  and  _677
REMARK  273  A    between atoms: _677  and  _678
REMARK  274  A    between atoms: _681  and  _683
REMARK  275  A    between atoms: _683  and  _684
REMARK  276  A    between atoms: _686  and  _688
REMARK  277  A    between atoms: _688  and  _689
REMARK  278  A    between atoms: _688  and  _691
REMARK  279  A    between atoms: _691  and  _692
REMARK  280  A    between atoms: _692  and  _693
REMARK  281  A    between atoms: _696  and  _698
REMARK  282  A    between atoms: _698  and  _699
REMARK  283  A    between atoms: _702  and  _704
REMARK  284  A    between atoms: _704  and  _705
REMARK  285  A    between atoms: _704  and  _707
REMARK  286  A    between atoms: _707  and  _708
REMARK  287  A    between atoms: _708  and  _709
REMARK  288  A    between atoms: _712  and  _714
REMARK  289  A    between atoms: _714  and  _715
REMARK  290  A    between atoms: _714  and  _717
REMARK  291  A    between atoms: _717  and  _718
REMARK  292  A    between atoms: _718  and  _719
REMARK  293  A    between atoms: _719  and  _720
REMARK  294  A    between atoms: _729  and  _731
REMARK  295  A    between atoms: _731  and  _732
REMARK  296  A    between atoms: _731  and  _734
REMARK  297  A    between atoms: _734  and  _735
REMARK  298  A    between atoms: _738  and  _740
REMARK  299  A    between atoms: _740  and  _741
REMARK  300  A    between atoms: _740  and  _743
REMARK  301  A    between atoms: _743  and  _744
REMARK  302  A    between atoms: _744  and  _745
REMARK  303  A    between atoms: _745  and  _746
REMARK  304  A    between atoms: _755  and  _757
REMARK  305  A    between atoms: _757  and  _758
REMARK  306  A    between atoms: _761  and  _763
REMARK  307  A    between atoms: _763  and  _764
REMARK  308  A    between atoms: _763  and  _766
REMARK  309  A    between atoms: _766  and  _767
REMARK  310  A    between atoms: _772  and  _773
REMARK  311  A    between atoms: _775  and  _777
REMARK  312  A    between atoms: _777  and  _778
REMARK  313  A    between atoms: _777  and  _780
REMARK  314  A    between atoms: _780  and  _781
REMARK  315  A    between atoms: _784  and  _786
REMARK  316  A    between atoms: _786  and  _787
REMARK  317  A    between atoms: _786  and  _789
REMARK  318  A    between atoms: _789  and  _790
REMARK  319  A    between atoms: _793  and  _795
REMARK  320  A    between atoms: _795  and  _796
REMARK  321  A    between atoms: _795  and  _798
REMARK  322  A    between atoms: _800  and  _802
REMARK  323  A    between atoms: _802  and  _803
REMARK  324  A    between atoms: _802  and  _805
REMARK  325  A    between atoms: _808  and  _810
REMARK  326  A    between atoms: _810  and  _811
REMARK  327  A    between atoms: _810  and  _813
REMARK  328  A    between atoms: _813  and  _814
REMARK  329  A    between atoms: _814  and  _815
REMARK  330  A    between atoms: _818  and  _820
REMARK  331  A    between atoms: _820  and  _821
REMARK  332  A    between atoms: _820  and  _823
REMARK  333  A    between atoms: _823  and  _824
REMARK  334  A    between atoms: _834  and  _836
REMARK  335  A    between atoms: _836  and  _837
REMARK  336  A    between atoms: _836  and  _839
REMARK  337  A    between atoms: _839  and  _840
REMARK  338  A    between atoms: _843  and  _845
REMARK  339  A    between atoms: _845  and  _846
REMARK  340  A    between atoms: _845  and  _848
REMARK  341  A    between atoms: _848  and  _849
REMARK  342  A    between atoms: _849  and  _850
REMARK  343  A    between atoms: _850  and  _851
REMARK  344  A    between atoms: _860  and  _862
REMARK  345  A    between atoms: _862  and  _863
REMARK  346  A    between atoms: _862  and  _865
REMARK  347  A    between atoms: _865  and  _866
REMARK  348  A    between atoms: _871  and  _872
REMARK  349  A    between atoms: _874  and  _876
REMARK  350  A    between atoms: _876  and  _877
REMARK  351  A    between atoms: _876  and  _879
REMARK  352  A    between atoms: _879  and  _880
REMARK  353  A    between atoms: _880  and  _881
REMARK  354  A    between atoms: _886  and  _888
REMARK  355  A    between atoms: _888  and  _889
REMARK  356  A    between atoms: _888  and  _891
REMARK  357  A    between atoms: _891  and  _892
REMARK  358  A    between atoms: _895  and  _897
REMARK  359  A    between atoms: _897  and  _898
REMARK  360  A    between atoms: _897  and  _900
REMARK  361  A    between atoms: _900  and  _901
REMARK  362  A    between atoms: _903  and  _905
REMARK  363  A    between atoms: _905  and  _906
REMARK  364  A    between atoms: _905  and  _908
REMARK  365  A    between atoms: _908  and  _909
REMARK  366  A    between atoms: _911  and  _913
REMARK  367  A    between atoms: _913  and  _914
REMARK  368  A    between atoms: _913  and  _916
REMARK  369  A    between atoms: _916  and  _917
REMARK  370  A    between atoms: _923  and  _925
REMARK  371  A    between atoms: _925  and  _926
REMARK  372  A    between atoms: _925  and  _928
REMARK  373  A    between atoms: _928  and  _929
REMARK  374  A    between atoms: _929  and  _930
REMARK  375  A    between atoms: _930  and  _931
REMARK  376  A    between atoms: _940  and  _942
REMARK  377  A    between atoms: _942  and  _943
REMARK  378  A    between atoms: _942  and  _945
REMARK  379  A    between atoms: _945  and  _946
REMARK  380  A    between atoms: _946  and  _947
REMARK  381  A    between atoms: _947  and  _948
REMARK  382  A    between atoms: _957  and  _959
REMARK  383  A    between atoms: _959  and  _960
REMARK  384  A    between atoms: _962  and  _964
REMARK  385  A    between atoms: _964  and  _965
REMARK  386  A    between atoms: _964  and  _967
REMARK  387  A    between atoms: _967  and  _968
REMARK  388  A    between atoms: _974  and  _975
REMARK  389  A    between atoms: _980  and  _982
REMARK  390  A    between atoms: _982  and  _983
REMARK  391  A    between atoms: _982  and  _985
REMARK  392  A    between atoms: _985  and  _986
REMARK  393  A    between atoms: _996  and  _998
REMARK  394  A    between atoms: _998  and  _999
REMARK  395  A    between atoms: _998  and  _1001
REMARK  396  A    between atoms: _1001  and  _1002
REMARK  397  A    between atoms: _1002  and  _1003
REMARK  398  A    between atoms: _1003  and  _1004
REMARK  399  A    between atoms: _1013  and  _1015
REMARK  400  A    between atoms: _1015  and  _1016
REMARK  401  A    between atoms: _1015  and  _1018
REMARK  402  A    between atoms: _1018  and  _1019
REMARK  403  A    between atoms: _1021  and  _1023
REMARK  404  A    between atoms: _1023  and  _1024
REMARK  405  A    between atoms: _1027  and  _1029
REMARK  406  A    between atoms: _1029  and  _1030
REMARK  407  A    between atoms: _1029  and  _1032
REMARK  408  A    between atoms: _1032  and  _1033
REMARK  409  A    between atoms: _1036  and  _1038
REMARK  410  A    between atoms: _1038  and  _1039
REMARK  411  A    between atoms: _1038  and  _1041
REMARK  412  A    between atoms: _1041  and  _1042
REMARK  413  A    between atoms: _1042  and  _1043
REMARK  414  A    between atoms: _1043  and  _1044
REMARK  415  A    between atoms: _1053  and  _1055
REMARK  416  A    between atoms: _1055  and  _1056
REMARK  417  A    between atoms: _1055  and  _1058
REMARK  418  A    between atoms: _1061  and  _1063
REMARK  419  A    between atoms: _1063  and  _1064
REMARK  420  A    between atoms: _1066  and  _1068
REMARK  421  A    between atoms: _1068  and  _1069
REMARK  422  A    between atoms: _1068  and  _1071
REMARK  423  A    between atoms: _1071  and  _1072
REMARK                            x       y       z     vdW  Elec       q    Type
REMARK                         _______ _______ _______ _____ _____    ______ ____
ROOT
ATOM      1  O   HOH     1      27.172  27.497  53.803  0.00  0.00    +0.000 OA
ENDROOT
TORSDOF 0
REMARK  Name = ../refined-set-2016/1fo0/1fo0_pocket.pdb
REMARK  423 active torsions:
REMARK  status: ('A' for Active; 'I' for Inactive)
REMARK    1  A    between atoms: _1  and  _3
REMARK    2  A    between atoms: _3  and  _4
REMARK    3  A    between atoms: _3  and  _6
REMARK    4  A    between atoms: _6  and  _7
REMARK    5  A    between atoms: _10  and  _12
REMARK    6  A    between atoms: _12  and  _13
REMARK    7  A    between atoms: _12  and  _15
REMARK    8  A    between atoms: _15  and  _16
REMARK    9  A    between atoms: _16  and  _17
REMARK   10  A    between atoms: _17  and  _18
REMARK   11  A    between atoms: _27  and  _29
REMARK   12  A    between atoms: _29  and  _30
REMARK   13  A    between atoms: _29  and  _32
REMARK   14  A    between atoms: _32  and  _33
REMARK   15  A    between atoms: _38  and  _39
REMARK   16  A    between atoms: _41  and  _43
REMARK   17  A    between atoms: _43  and  _44
REMARK   18  A    between atoms: _43  and  _46
REMARK   19  A    between atoms: _46  and  _47
REMARK   20  A    between atoms: _53  and  _55
REMARK   21  A    between atoms: _55  and  _56
REMARK   22  A    between atoms: _55  and  _58
REMARK   23  A    between atoms: _61  and  _63
REMARK   24  A    between atoms: _63  and  _64
REMARK   25  A    between atoms: _63  and  _66
REMARK   26  A    between atoms: _66  and  _67
REMARK   27  A    between atoms: _70  and  _72
REMARK   28  A    between atoms: _72  and  _73
REMARK   29  A    between atoms: _72  and  _75
REMARK   30  A    between atoms: _75  and  _76
REMARK   31  A    between atoms: _81  and  _82
REMARK   32  A    between atoms: _84  and  _86
REMARK   33  A    between atoms: _86  and  _87
REMARK   34  A    between atoms: _86  and  _89
REMARK   35  A    between atoms: _89  and  _90
REMARK   36  A    between atoms: _90  and  _91
REMARK   37  A    between atoms: _93  and  _95
REMARK   38  A    between atoms: _95  and  _96
REMARK   39  A    between atoms: _95  and  _98
REMARK   40  A    between atoms: _98  and  _99
REMARK   41  A    between atoms: _99  and  _100
REMARK   42  A    between atoms: _103  and  _105
REMARK   43  A    between atoms: _105  and  _106
REMARK   44  A    between atoms: _105  and  _108
REMARK   45  A    between atoms: _111  and  _113
REMARK   46  A    between atoms: _113  and  _114
REMARK   47  A    between atoms: _116  and  _118
REMARK   48  A    between atoms: _118  and  _119
REMARK   49  A    between atoms: _118  and  _121
REMARK   50  A    between atoms: _121  and  _122
REMARK   51  A    between atoms: _128  and  _130
REMARK   52  A    between atoms: _130  and  _131
REMARK   53  A    between atoms: _130  and  _133
REMARK   54  A    between atoms: _136  and  _138
REMARK   55  A    between atoms: _138  and  _139
REMARK   56  A    between atoms: _138  and  _141
REMARK   57  A    between atoms: _141  and  _142
REMARK   58  A    between atoms: _148  and  _150
REMARK   59  A    between atoms: _150  and  _151
REMARK   60  A    between atoms: _150  and  _153
REMARK   61  A    between atoms: _153  and  _154
REMARK   62  A    between atoms: _159  and  _160
REMARK   63  A    between atoms: _162  and  _164
REMARK   64  A    between atoms: _164  and  _165
REMARK   65  A    between atoms: _164  and  _167
REMARK   66  A    between atoms: _167  and  _168
REMARK   67  A    between atoms: _168  and  _169
REMARK   68  A    between atoms: _171  and  _173
REMARK   69  A    between atoms: _173  and  _174
REMARK   70  A    between atoms: _173  and  _176
REMARK   71  A    between atoms: _176  and  _177
REMARK   72  A    between atoms: _177  and  _178
REMARK   73  A    between atoms: _181  and  _183
REMARK   74  A    between atoms: _183  and  _184
REMARK   75  A    between atoms: _183  and  _186
REMARK   76  A    between atoms: _186  and  _187
REMARK   77  A    between atoms: _192  and  _193
REMARK   78  A    between atoms: _195  and  _197
REMARK   79  A    between atoms: _197  and  _198
REMARK   80  A    between atoms: _197  and  _200
REMARK   81  A    between atoms: _200  and  _201
REMARK   82  A    between atoms: _201  and  _202
REMARK   83  A    between atoms: _202  and  _203
REMARK   84  A    between atoms: _212  and  _214
REMARK   85  A    between atoms: _214  and  _215
REMARK   86  A    between atoms: _214  and  _217
REMARK   87  A    between atoms: _217  and  _218
REMARK   88  A    between atoms: _218  and  _219
REMARK   89  A    between atoms: _222  and  _224
REMARK   90  A    between atoms: _224  and  _225
REMARK   91  A    between atoms: _224  and  _227
REMARK   92  A    between atoms: _227  and  _228
REMARK   93  A    between atoms: _228  and  _229
REMARK   94  A    between atoms: _234  and  _236
REMARK   95  A    between atoms: _236  and  _237
REMARK   96  A    between atoms: _236  and  _239
REMARK   97  A    between atoms: _239  and  _240
REMARK   98  A    between atoms: _240  and  _241
REMARK   99  A    between atoms: _241  and  _242
REMARK  100  A    between atoms: _242  and  _243
REMARK  101  A    between atoms: _247  and  _249
REMARK  102  A    between atoms: _249  and  _250
REMARK  103  A    between atoms: _253  and  _255
REMARK  104  A    between atoms: _255  and  _256
REMARK  105  A    between atoms: _255  and  _258
REMARK  106  A    between atoms: _258  and  _259
REMARK  107  A    between atoms: _259  and  _260
REMARK  108  A    between atoms: _260  and  _261
REMARK  109  A    between atoms: _261  and  _262
REMARK  110  A    between atoms: _266  and  _268
REMARK  111  A    between atoms: _268  and  _269
REMARK  112  A    between atoms: _271  and  _273
REMARK  113  A    between atoms: _273  and  _274
REMARK  114  A    between atoms: _273  and  _276
REMARK  115  A    between atoms: _276  and  _277
REMARK  116  A    between atoms: _282  and  _284
REMARK  117  A    between atoms: _284  and  _285
REMARK  118  A    between atoms: _284  and  _287
REMARK  119  A    between atoms: _287  and  _288
REMARK  120  A    between atoms: _288  and  _289
REMARK  121  A    between atoms: _292  and  _294
REMARK  122  A    between atoms: _294  and  _295
REMARK  123  A    between atoms: _294  and  _297
REMARK  124  A    between atoms: _297  and  _298
REMARK  125  A    between atoms: _298  and  _299
REMARK  126  A    between atoms: _304  and  _306
REMARK  127  A    between atoms: _306  and  _307
REMARK  128  A    between atoms: _306  and  _309
REMARK  129  A    between atoms: _309  and  _310
REMARK  130  A    between atoms: _312  and  _314
REMARK  131  A    between atoms: _314  and  _315
REMARK  132  A    between atoms: _314  and  _317
REMARK  133  A    between atoms: _317  and  _318
REMARK  134  A    between atoms: _324  and  _326
REMARK  135  A    between atoms: _326  and  _327
REMARK  136  A    between atoms: _326  and  _329
REMARK  137  A    between atoms: _329  and  _330
REMARK  138  A    between atoms: _330  and  _331
REMARK  139  A    between atoms: _331  and  _332
REMARK  140  A    between atoms: _341  and  _343
REMARK  141  A    between atoms: _343  and  _344
REMARK  142  A    between atoms: _343  and  _346
REMARK  143  A    between atoms: _349  and  _351
REMARK  144  A    between atoms: _351  and  _352
REMARK  145  A    between atoms: _351  and  _354
REMARK  146  A    between atoms: _354  and  _355
REMARK  147  A    between atoms: _358  and  _360
REMARK  148  A    between atoms: _360  and  _361
REMARK  149  A    between atoms: _360  and  _363
REMARK  150  A    between atoms: _363  and  _364
REMARK  151  A    between atoms: _367  and  _369
REMARK  152  A    between atoms: _369  and  _370
REMARK  153  A    between atoms: _369  and  _372
REMARK  154  A    between atoms: _372  and  _373
REMARK  155  A    between atoms: _373  and  _374
REMARK  156  A    between atoms: _374  and  _375
REMARK  157  A    between atoms: _384  and  _386
REMARK  158  A    between atoms: _386  and  _387
REMARK  159  A    between atoms: _386  and  _389
REMARK  160  A    between atoms: _389  and  _390
REMARK  161  A    between atoms: _393  and  _395
REMARK  162  A    between atoms: _395  and  _396
REMARK  163  A    between atoms: _395  and  _398
REMARK  164  A    between atoms: _398  and  _399
REMARK  165  A    between atoms: _402  and  _404
REMARK  166  A    between atoms: _404  and  _405
REMARK  167  A    between atoms: _404  and  _407
REMARK  168  A    between atoms: _407  and  _408
REMARK  169  A    between atoms: _411  and  _413
REMARK  170  A    between atoms: _413  and  _414
REMARK  171  A    between atoms: _413  and  _416
REMARK  172  A    between atoms: _416  and  _417
REMARK  173  A    between atoms: _422  and  _423
REMARK  174  A    between atoms: _425  and  _427
REMARK  175  A    between atoms: _427  and  _428
REMARK  176  A    between atoms: _427  and  _430
REMARK  177  A    between atoms: _430  and  _431
REMARK  178  A    between atoms: _436  and  _437
REMARK  179  A    between atoms: _439  and  _441
REMARK  180  A    between atoms: _441  and  _442
REMARK  181  A    between atoms: _441  and  _444
REMARK  182  A    between atoms: _444  and  _445
REMARK  183  A    between atoms: _448  and  _450
REMARK  184  A    between atoms: _450  and  _451
REMARK  185  A    between atoms: _450  and  _453
REMARK  186  A    between atoms: _456  and  _458
REMARK  187  A    between atoms: _458  and  _459
REMARK  188  A    between atoms: _458  and  _461
REMARK  189  A    between atoms: _461  and  _462
REMARK  190  A    between atoms: _465  and  _467
REMARK  191  A    between atoms: _467  and  _468
REMARK  192  A    between atoms: _467  and  _470
REMARK  193  A    between atoms: _470  and  _471
REMARK  194  A    between atoms: _473  and  _475
REMARK  195  A    between atoms: _475  and  _476
REMARK  196  A    between atoms: _478  and  _480
REMARK  197  A    between atoms: _480  and  _481
REMARK  198  A    between atoms: _480  and  _483
REMARK  199  A    between atoms: _483  and  _484
REMARK  200  A    between atoms: _489  and  _490
REMARK  201  A    between atoms: _492  and  _494
REMARK  202  A    between atoms: _494  and  _495
REMARK  203  A    between atoms: _494  and  _497
REMARK  204  A    between atoms: _497  and  _498
REMARK  205  A    between atoms: _498  and  _499
REMARK  206  A    between atoms: _504  and  _506
REMARK  207  A    between atoms: _506  and  _507
REMARK  208  A    between atoms: _506  and  _509
REMARK  209  A    between atoms: _509  and  _510
REMARK  210  A    between atoms: _510  and  _511
REMARK  211  A    between atoms: _516  and  _518
REMARK  212  A    between atoms: _518  and  _519
REMARK  213  A    between atoms: _518  and  _521
REMARK  214  A    between atoms: _521  and  _522
REMARK  215  A    between atoms: _527  and  _528
REMARK  216  A    between atoms: _530  and  _532
REMARK  217  A    between atoms: _532  and  _533
REMARK  218  A    between atoms: _532  and  _535
REMARK  219  A    between atoms: _535  and  _536
REMARK  220  A    between atoms: _541  and  _542
REMARK  221  A    between atoms: _544  and  _546
REMARK  222  A    between atoms: _546  and  _547
REMARK  223  A    between atoms: _546  and  _549
REMARK  224  A    between atoms: _549  and  _550
REMARK  225  A    between atoms: _555  and  _556
REMARK  226  A    between atoms: _558  and  _560
REMARK  227  A    between atoms: _560  and  _561
REMARK  228  A    between atoms: _560  and  _563
REMARK  229  A    between atoms: _563  and  _564
REMARK  230  A    between atoms: _567  and  _569
REMARK  231  A    between atoms: _569  and  _570
REMARK  232  A    between atoms: _569  and  _572
REMARK  233  A    between atoms: _572  and  _573
REMARK  234  A    between atoms: _583  and  _585
REMARK  235  A    between atoms: _585  and  _586
REMARK  236  A    between atoms: _589  and  _591
REMARK  237  A    between atoms: _591  and  _592
REMARK  238  A    between atoms: _595  and  _597
REMARK  239  A    between atoms: _597  and  _598
REMARK  240  A    between atoms: _597  and  _600
REMARK  241  A    between atoms: _600  and  _601
REMARK  242  A    between atoms: _604  and  _606
REMARK  243  A    between atoms: _606  and  _607
REMARK  244  A    between atoms: _606  and  _609
REMARK  245  A    between atoms: _609  and  _610
REMARK  246  A    between atoms: _613  and  _615
REMARK  247  A    between atoms: _615  and  _616
REMARK  248  A    between atoms: _615  and  _618
REMARK  249  A    between atoms: _618  and  _619
REMARK  250  A    between atoms: _622  and  _624
REMARK  251  A    between atoms: _624  and  _625
REMARK  252  A    between atoms: _624  and  _627
REMARK  253  A    between atoms: _627  and  _628
REMARK  254  A    between atoms: _628  and  _629
REMARK  255  A    between atoms: _629  and  _630
REMARK  256  A    between atoms: _630  and  _631
REMARK  257  A    between atoms: _635  and  _637
REMARK  258  A    between atoms: _637  and  _638
REMARK  259  A    between atoms: _637  and  _640
REMARK  260  A    between atoms: _640  and  _641
REMARK  261  A    between atoms: _646  and  _648
REMARK  262  A    between atoms: _648  and  _649
REMARK  263  A    between atoms: _648  and  _651
REMARK  264  A    between atoms: _651  and  _652
REMARK  265  A    between atoms: _652  and  _653
REMARK  266  A    between atoms: _653  and  _654
REMARK  267  A    between atoms: _654  and  _655
REMARK  268  A    between atoms: _659  and  _661
REMARK  269  A    between atoms: _661  and  _662
REMARK  270  A    between atoms: _661  and  _664
REMARK  271  A    between atoms: _664  and  _665
REMARK  272  A    between atoms: _675  and  _677
REMARK  273  A    between atoms: _677  and  _678
REMARK  274  A    between atoms: _681  and  _683
REMARK  275  A    between atoms: _683  and  _684
REMARK  276  A    between atoms: _686  and  _688
REMARK  277  A    between atoms: _688  and  _689
REMARK  278  A    between atoms: _688  and  _691
REMARK  279  A    between atoms: _691  and  _692
REMARK  280  A    between atoms: _692  and  _693
REMARK  281  A    between atoms: _696  and  _698
REMARK  282  A    between atoms: _698  and  _699
REMARK  283  A    between atoms: _702  and  _704
REMARK  284  A    between atoms: _704  and  _705
REMARK  285  A    between atoms: _704  and  _707
REMARK  286  A    between atoms: _707  and  _708
REMARK  287  A    between atoms: _708  and  _709
REMARK  288  A    between atoms: _712  and  _714
REMARK  289  A    between atoms: _714  and  _715
REMARK  290  A    between atoms: _714  and  _717
REMARK  291  A    between atoms: _717  and  _718
REMARK  292  A    between atoms: _718  and  _719
REMARK  293  A    between atoms: _719  and  _720
REMARK  294  A    between atoms: _729  and  _731
REMARK  295  A    between atoms: _731  and  _732
REMARK  296  A    between atoms: _731  and  _734
REMARK  297  A    between atoms: _734  and  _735
REMARK  298  A    between atoms: _738  and  _740
REMARK  299  A    between atoms: _740  and  _741
REMARK  300  A    between atoms: _740  and  _743
REMARK  301  A    between atoms: _743  and  _744
REMARK  302  A    between atoms: _744  and  _745
REMARK  303  A    between atoms: _745  and  _746
REMARK  304  A    between atoms: _755  and  _757
REMARK  305  A    between atoms: _757  and  _758
REMARK  306  A    between atoms: _761  and  _763
REMARK  307  A    between atoms: _763  and  _764
REMARK  308  A    between atoms: _763  and  _766
REMARK  309  A    between atoms: _766  and  _767
REMARK  310  A    between atoms: _772  and  _773
REMARK  311  A    between atoms: _775  and  _777
REMARK  312  A    between atoms: _777  and  _778
REMARK  313  A    between atoms: _777  and  _780
REMARK  314  A    between atoms: _780  and  _781
REMARK  315  A    between atoms: _784  and  _786
REMARK  316  A    between atoms: _786  and  _787
REMARK  317  A    between atoms: _786  and  _789
REMARK  318  A    between atoms: _789  and  _790
REMARK  319  A    between atoms: _793  and  _795
REMARK  320  A    between atoms: _795  and  _796
REMARK  321  A    between atoms: _795  and  _798
REMARK  322  A    between atoms: _800  and  _802
REMARK  323  A    between atoms: _802  and  _803
REMARK  324  A    between atoms: _802  and  _805
REMARK  325  A    between atoms: _808  and  _810
REMARK  326  A    between atoms: _810  and  _811
REMARK  327  A    between atoms: _810  and  _813
REMARK  328  A    between atoms: _813  and  _814
REMARK  329  A    between atoms: _814  and  _815
REMARK  330  A    between atoms: _818  and  _820
REMARK  331  A    between atoms: _820  and  _821
REMARK  332  A    between atoms: _820  and  _823
REMARK  333  A    between atoms: _823  and  _824
REMARK  334  A    between atoms: _834  and  _836
REMARK  335  A    between atoms: _836  and  _837
REMARK  336  A    between atoms: _836  and  _839
REMARK  337  A    between atoms: _839  and  _840
REMARK  338  A    between atoms: _843  and  _845
REMARK  339  A    between atoms: _845  and  _846
REMARK  340  A    between atoms: _845  and  _848
REMARK  341  A    between atoms: _848  and  _849
REMARK  342  A    between atoms: _849  and  _850
REMARK  343  A    between atoms: _850  and  _851
REMARK  344  A    between atoms: _860  and  _862
REMARK  345  A    between atoms: _862  and  _863
REMARK  346  A    between atoms: _862  and  _865
REMARK  347  A    between atoms: _865  and  _866
REMARK  348  A    between atoms: _871  and  _872
REMARK  349  A    between atoms: _874  and  _876
REMARK  350  A    between atoms: _876  and  _877
REMARK  351  A    between atoms: _876  and  _879
REMARK  352  A    between atoms: _879  and  _880
REMARK  353  A    between atoms: _880  and  _881
REMARK  354  A    between atoms: _886  and  _888
REMARK  355  A    between atoms: _888  and  _889
REMARK  356  A    between atoms: _888  and  _891
REMARK  357  A    between atoms: _891  and  _892
REMARK  358  A    between atoms: _895  and  _897
REMARK  359  A    between atoms: _897  and  _898
REMARK  360  A    between atoms: _897  and  _900
REMARK  361  A    between atoms: _900  and  _901
REMARK  362  A    between atoms: _903  and  _905
REMARK  363  A    between atoms: _905  and  _906
REMARK  364  A    between atoms: _905  and  _908
REMARK  365  A    between atoms: _908  and  _909
REMARK  366  A    between atoms: _911  and  _913
REMARK  367  A    between atoms: _913  and  _914
REMARK  368  A    between atoms: _913  and  _916
REMARK  369  A    between atoms: _916  and  _917
REMARK  370  A    between atoms: _923  and  _925
REMARK  371  A    between atoms: _925  and  _926
REMARK  372  A    between atoms: _925  and  _928
REMARK  373  A    between atoms: _928  and  _929
REMARK  374  A    between atoms: _929  and  _930
REMARK  375  A    between atoms: _930  and  _931
REMARK  376  A    between atoms: _940  and  _942
REMARK  377  A    between atoms: _942  and  _943
REMARK  378  A    between atoms: _942  and  _945
REMARK  379  A    between atoms: _945  and  _946
REMARK  380  A    between atoms: _946  and  _947
REMARK  381  A    between atoms: _947  and  _948
REMARK  382  A    between atoms: _957  and  _959
REMARK  383  A    between atoms: _959  and  _960
REMARK  384  A    between atoms: _962  and  _964
REMARK  385  A    between atoms: _964  and  _965
REMARK  386  A    between atoms: _964  and  _967
REMARK  387  A    between atoms: _967  and  _968
REMARK  388  A    between atoms: _974  and  _975
REMARK  389  A    between atoms: _980  and  _982
REMARK  390  A    between atoms: _982  and  _983
REMARK  391  A    between atoms: _982  and  _985
REMARK  392  A    between atoms: _985  and  _986
REMARK  393  A    between atoms: _996  and  _998
REMARK  394  A    between atoms: _998  and  _999
REMARK  395  A    between atoms: _998  and  _1001
REMARK  396  A    between atoms: _1001  and  _1002
REMARK  397  A    between atoms: _1002  and  _1003
REMARK  398  A    between atoms: _1003  and  _1004
REMARK  399  A    between atoms: _1013  and  _1015
REMARK  400  A    between atoms: _1015  and  _1016
REMARK  401  A    between atoms: _1015  and  _1018
REMARK  402  A    between atoms: _1018  and  _1019
REMARK  403  A    between atoms: _1021  and  _1023
REMARK  404  A    between atoms: _1023  and  _1024
REMARK  405  A    between atoms: _1027  and  _1029
REMARK  406  A    between atoms: _1029  and  _1030
REMARK  407  A    between atoms: _1029  and  _1032
REMARK  408  A    between atoms: _1032  and  _1033
REMARK  409  A    between atoms: _1036  and  _1038
REMARK  410  A    between atoms: _1038  and  _1039
REMARK  411  A    between atoms: _1038  and  _1041
REMARK  412  A    between atoms: _1041  and  _1042
REMARK  413  A    between atoms: _1042  and  _1043
REMARK  414  A    between atoms: _1043  and  _1044
REMARK  415  A    between atoms: _1053  and  _1055
REMARK  416  A    between atoms: _1055  and  _1056
REMARK  417  A    between atoms: _1055  and  _1058
REMARK  418  A    between atoms: _1061  and  _1063
REMARK  419  A    between atoms: _1063  and  _1064
REMARK  420  A    between atoms: _1066  and  _1068
REMARK  421  A    between atoms: _1068  and  _1069
REMARK  422  A    between atoms: _1068  and  _1071
REMARK  423  A    between atoms: _1071  and  _1072
REMARK                            x       y       z     vdW  Elec       q    Type
REMARK                         _______ _______ _______ _____ _____    ______ ____
ROOT
ATOM      1  O   HOH     1      22.381  27.875  55.887  0.00  0.00    +0.000 OA
ENDROOT
TORSDOF 0
REMARK  Name = ../refined-set-2016/1fo0/1fo0_pocket.pdb
REMARK  423 active torsions:
REMARK  status: ('A' for Active; 'I' for Inactive)
REMARK    1  A    between atoms: _1  and  _3
REMARK    2  A    between atoms: _3  and  _4
REMARK    3  A    between atoms: _3  and  _6
REMARK    4  A    between atoms: _6  and  _7
REMARK    5  A    between atoms: _10  and  _12
REMARK    6  A    between atoms: _12  and  _13
REMARK    7  A    between atoms: _12  and  _15
REMARK    8  A    between atoms: _15  and  _16
REMARK    9  A    between atoms: _16  and  _17
REMARK   10  A    between atoms: _17  and  _18
REMARK   11  A    between atoms: _27  and  _29
REMARK   12  A    between atoms: _29  and  _30
REMARK   13  A    between atoms: _29  and  _32
REMARK   14  A    between atoms: _32  and  _33
REMARK   15  A    between atoms: _38  and  _39
REMARK   16  A    between atoms: _41  and  _43
REMARK   17  A    between atoms: _43  and  _44
REMARK   18  A    between atoms: _43  and  _46
REMARK   19  A    between atoms: _46  and  _47
REMARK   20  A    between atoms: _53  and  _55
REMARK   21  A    between atoms: _55  and  _56
REMARK   22  A    between atoms: _55  and  _58
REMARK   23  A    between atoms: _61  and  _63
REMARK   24  A    between atoms: _63  and  _64
REMARK   25  A    between atoms: _63  and  _66
REMARK   26  A    between atoms: _66  and  _67
REMARK   27  A    between atoms: _70  and  _72
REMARK   28  A    between atoms: _72  and  _73
REMARK   29  A    between atoms: _72  and  _75
REMARK   30  A    between atoms: _75  and  _76
REMARK   31  A    between atoms: _81  and  _82
REMARK   32  A    between atoms: _84  and  _86
REMARK   33  A    between atoms: _86  and  _87
REMARK   34  A    between atoms: _86  and  _89
REMARK   35  A    between atoms: _89  and  _90
REMARK   36  A    between atoms: _90  and  _91
REMARK   37  A    between atoms: _93  and  _95
REMARK   38  A    between atoms: _95  and  _96
REMARK   39  A    between atoms: _95  and  _98
REMARK   40  A    between atoms: _98  and  _99
REMARK   41  A    between atoms: _99  and  _100
REMARK   42  A    between atoms: _103  and  _105
REMARK   43  A    between atoms: _105  and  _106
REMARK   44  A    between atoms: _105  and  _108
REMARK   45  A    between atoms: _111  and  _113
REMARK   46  A    between atoms: _113  and  _114
REMARK   47  A    between atoms: _116  and  _118
REMARK   48  A    between atoms: _118  and  _119
REMARK   49  A    between atoms: _118  and  _121
REMARK   50  A    between atoms: _121  and  _122
REMARK   51  A    between atoms: _128  and  _130
REMARK   52  A    between atoms: _130  and  _131
REMARK   53  A    between atoms: _130  and  _133
REMARK   54  A    between atoms: _136  and  _138
REMARK   55  A    between atoms: _138  and  _139
REMARK   56  A    between atoms: _138  and  _141
REMARK   57  A    between atoms: _141  and  _142
REMARK   58  A    between atoms: _148  and  _150
REMARK   59  A    between atoms: _150  and  _151
REMARK   60  A    between atoms: _150  and  _153
REMARK   61  A    between atoms: _153  and  _154
REMARK   62  A    between atoms: _159  and  _160
REMARK   63  A    between atoms: _162  and  _164
REMARK   64  A    between atoms: _164  and  _165
REMARK   65  A    between atoms: _164  and  _167
REMARK   66  A    between atoms: _167  and  _168
REMARK   67  A    between atoms: _168  and  _169
REMARK   68  A    between atoms: _171  and  _173
REMARK   69  A    between atoms: _173  and  _174
REMARK   70  A    between atoms: _173  and  _176
REMARK   71  A    between atoms: _176  and  _177
REMARK   72  A    between atoms: _177  and  _178
REMARK   73  A    between atoms: _181  and  _183
REMARK   74  A    between atoms: _183  and  _184
REMARK   75  A    between atoms: _183  and  _186
REMARK   76  A    between atoms: _186  and  _187
REMARK   77  A    between atoms: _192  and  _193
REMARK   78  A    between atoms: _195  and  _197
REMARK   79  A    between atoms: _197  and  _198
REMARK   80  A    between atoms: _197  and  _200
REMARK   81  A    between atoms: _200  and  _201
REMARK   82  A    between atoms: _201  and  _202
REMARK   83  A    between atoms: _202  and  _203
REMARK   84  A    between atoms: _212  and  _214
REMARK   85  A    between atoms: _214  and  _215
REMARK   86  A    between atoms: _214  and  _217
REMARK   87  A    between atoms: _217  and  _218
REMARK   88  A    between atoms: _218  and  _219
REMARK   89  A    between atoms: _222  and  _224
REMARK   90  A    between atoms: _224  and  _225
REMARK   91  A    between atoms: _224  and  _227
REMARK   92  A    between atoms: _227  and  _228
REMARK   93  A    between atoms: _228  and  _229
REMARK   94  A    between atoms: _234  and  _236
REMARK   95  A    between atoms: _236  and  _237
REMARK   96  A    between atoms: _236  and  _239
REMARK   97  A    between atoms: _239  and  _240
REMARK   98  A    between atoms: _240  and  _241
REMARK   99  A    between atoms: _241  and  _242
REMARK  100  A    between atoms: _242  and  _243
REMARK  101  A    between atoms: _247  and  _249
REMARK  102  A    between atoms: _249  and  _250
REMARK  103  A    between atoms: _253  and  _255
REMARK  104  A    between atoms: _255  and  _256
REMARK  105  A    between atoms: _255  and  _258
REMARK  106  A    between atoms: _258  and  _259
REMARK  107  A    between atoms: _259  and  _260
REMARK  108  A    between atoms: _260  and  _261
REMARK  109  A    between atoms: _261  and  _262
REMARK  110  A    between atoms: _266  and  _268
REMARK  111  A    between atoms: _268  and  _269
REMARK  112  A    between atoms: _271  and  _273
REMARK  113  A    between atoms: _273  and  _274
REMARK  114  A    between atoms: _273  and  _276
REMARK  115  A    between atoms: _276  and  _277
REMARK  116  A    between atoms: _282  and  _284
REMARK  117  A    between atoms: _284  and  _285
REMARK  118  A    between atoms: _284  and  _287
REMARK  119  A    between atoms: _287  and  _288
REMARK  120  A    between atoms: _288  and  _289
REMARK  121  A    between atoms: _292  and  _294
REMARK  122  A    between atoms: _294  and  _295
REMARK  123  A    between atoms: _294  and  _297
REMARK  124  A    between atoms: _297  and  _298
REMARK  125  A    between atoms: _298  and  _299
REMARK  126  A    between atoms: _304  and  _306
REMARK  127  A    between atoms: _306  and  _307
REMARK  128  A    between atoms: _306  and  _309
REMARK  129  A    between atoms: _309  and  _310
REMARK  130  A    between atoms: _312  and  _314
REMARK  131  A    between atoms: _314  and  _315
REMARK  132  A    between atoms: _314  and  _317
REMARK  133  A    between atoms: _317  and  _318
REMARK  134  A    between atoms: _324  and  _326
REMARK  135  A    between atoms: _326  and  _327
REMARK  136  A    between atoms: _326  and  _329
REMARK  137  A    between atoms: _329  and  _330
REMARK  138  A    between atoms: _330  and  _331
REMARK  139  A    between atoms: _331  and  _332
REMARK  140  A    between atoms: _341  and  _343
REMARK  141  A    between atoms: _343  and  _344
REMARK  142  A    between atoms: _343  and  _346
REMARK  143  A    between atoms: _349  and  _351
REMARK  144  A    between atoms: _351  and  _352
REMARK  145  A    between atoms: _351  and  _354
REMARK  146  A    between atoms: _354  and  _355
REMARK  147  A    between atoms: _358  and  _360
REMARK  148  A    between atoms: _360  and  _361
REMARK  149  A    between atoms: _360  and  _363
REMARK  150  A    between atoms: _363  and  _364
REMARK  151  A    between atoms: _367  and  _369
REMARK  152  A    between atoms: _369  and  _370
REMARK  153  A    between atoms: _369  and  _372
REMARK  154  A    between atoms: _372  and  _373
REMARK  155  A    between atoms: _373  and  _374
REMARK  156  A    between atoms: _374  and  _375
REMARK  157  A    between atoms: _384  and  _386
REMARK  158  A    between atoms: _386  and  _387
REMARK  159  A    between atoms: _386  and  _389
REMARK  160  A    between atoms: _389  and  _390
REMARK  161  A    between atoms: _393  and  _395
REMARK  162  A    between atoms: _395  and  _396
REMARK  163  A    between atoms: _395  and  _398
REMARK  164  A    between atoms: _398  and  _399
REMARK  165  A    between atoms: _402  and  _404
REMARK  166  A    between atoms: _404  and  _405
REMARK  167  A    between atoms: _404  and  _407
REMARK  168  A    between atoms: _407  and  _408
REMARK  169  A    between atoms: _411  and  _413
REMARK  170  A    between atoms: _413  and  _414
REMARK  171  A    between atoms: _413  and  _416
REMARK  172  A    between atoms: _416  and  _417
REMARK  173  A    between atoms: _422  and  _423
REMARK  174  A    between atoms: _425  and  _427
REMARK  175  A    between atoms: _427  and  _428
REMARK  176  A    between atoms: _427  and  _430
REMARK  177  A    between atoms: _430  and  _431
REMARK  178  A    between atoms: _436  and  _437
REMARK  179  A    between atoms: _439  and  _441
REMARK  180  A    between atoms: _441  and  _442
REMARK  181  A    between atoms: _441  and  _444
REMARK  182  A    between atoms: _444  and  _445
REMARK  183  A    between atoms: _448  and  _450
REMARK  184  A    between atoms: _450  and  _451
REMARK  185  A    between atoms: _450  and  _453
REMARK  186  A    between atoms: _456  and  _458
REMARK  187  A    between atoms: _458  and  _459
REMARK  188  A    between atoms: _458  and  _461
REMARK  189  A    between atoms: _461  and  _462
REMARK  190  A    between atoms: _465  and  _467
REMARK  191  A    between atoms: _467  and  _468
REMARK  192  A    between atoms: _467  and  _470
REMARK  193  A    between atoms: _470  and  _471
REMARK  194  A    between atoms: _473  and  _475
REMARK  195  A    between atoms: _475  and  _476
REMARK  196  A    between atoms: _478  and  _480
REMARK  197  A    between atoms: _480  and  _481
REMARK  198  A    between atoms: _480  and  _483
REMARK  199  A    between atoms: _483  and  _484
REMARK  200  A    between atoms: _489  and  _490
REMARK  201  A    between atoms: _492  and  _494
REMARK  202  A    between atoms: _494  and  _495
REMARK  203  A    between atoms: _494  and  _497
REMARK  204  A    between atoms: _497  and  _498
REMARK  205  A    between atoms: _498  and  _499
REMARK  206  A    between atoms: _504  and  _506
REMARK  207  A    between atoms: _506  and  _507
REMARK  208  A    between atoms: _506  and  _509
REMARK  209  A    between atoms: _509  and  _510
REMARK  210  A    between atoms: _510  and  _511
REMARK  211  A    between atoms: _516  and  _518
REMARK  212  A    between atoms: _518  and  _519
REMARK  213  A    between atoms: _518  and  _521
REMARK  214  A    between atoms: _521  and  _522
REMARK  215  A    between atoms: _527  and  _528
REMARK  216  A    between atoms: _530  and  _532
REMARK  217  A    between atoms: _532  and  _533
REMARK  218  A    between atoms: _532  and  _535
REMARK  219  A    between atoms: _535  and  _536
REMARK  220  A    between atoms: _541  and  _542
REMARK  221  A    between atoms: _544  and  _546
REMARK  222  A    between atoms: _546  and  _547
REMARK  223  A    between atoms: _546  and  _549
REMARK  224  A    between atoms: _549  and  _550
REMARK  225  A    between atoms: _555  and  _556
REMARK  226  A    between atoms: _558  and  _560
REMARK  227  A    between atoms: _560  and  _561
REMARK  228  A    between atoms: _560  and  _563
REMARK  229  A    between atoms: _563  and  _564
REMARK  230  A    between atoms: _567  and  _569
REMARK  231  A    between atoms: _569  and  _570
REMARK  232  A    between atoms: _569  and  _572
REMARK  233  A    between atoms: _572  and  _573
REMARK  234  A    between atoms: _583  and  _585
REMARK  235  A    between atoms: _585  and  _586
REMARK  236  A    between atoms: _589  and  _591
REMARK  237  A    between atoms: _591  and  _592
REMARK  238  A    between atoms: _595  and  _597
REMARK  239  A    between atoms: _597  and  _598
REMARK  240  A    between atoms: _597  and  _600
REMARK  241  A    between atoms: _600  and  _601
REMARK  242  A    between atoms: _604  and  _606
REMARK  243  A    between atoms: _606  and  _607
REMARK  244  A    between atoms: _606  and  _609
REMARK  245  A    between atoms: _609  and  _610
REMARK  246  A    between atoms: _613  and  _615
REMARK  247  A    between atoms: _615  and  _616
REMARK  248  A    between atoms: _615  and  _618
REMARK  249  A    between atoms: _618  and  _619
REMARK  250  A    between atoms: _622  and  _624
REMARK  251  A    between atoms: _624  and  _625
REMARK  252  A    between atoms: _624  and  _627
REMARK  253  A    between atoms: _627  and  _628
REMARK  254  A    between atoms: _628  and  _629
REMARK  255  A    between atoms: _629  and  _630
REMARK  256  A    between atoms: _630  and  _631
REMARK  257  A    between atoms: _635  and  _637
REMARK  258  A    between atoms: _637  and  _638
REMARK  259  A    between atoms: _637  and  _640
REMARK  260  A    between atoms: _640  and  _641
REMARK  261  A    between atoms: _646  and  _648
REMARK  262  A    between atoms: _648  and  _649
REMARK  263  A    between atoms: _648  and  _651
REMARK  264  A    between atoms: _651  and  _652
REMARK  265  A    between atoms: _652  and  _653
REMARK  266  A    between atoms: _653  and  _654
REMARK  267  A    between atoms: _654  and  _655
REMARK  268  A    between atoms: _659  and  _661
REMARK  269  A    between atoms: _661  and  _662
REMARK  270  A    between atoms: _661  and  _664
REMARK  271  A    between atoms: _664  and  _665
REMARK  272  A    between atoms: _675  and  _677
REMARK  273  A    between atoms: _677  and  _678
REMARK  274  A    between atoms: _681  and  _683
REMARK  275  A    between atoms: _683  and  _684
REMARK  276  A    between atoms: _686  and  _688
REMARK  277  A    between atoms: _688  and  _689
REMARK  278  A    between atoms: _688  and  _691
REMARK  279  A    between atoms: _691  and  _692
REMARK  280  A    between atoms: _692  and  _693
REMARK  281  A    between atoms: _696  and  _698
REMARK  282  A    between atoms: _698  and  _699
REMARK  283  A    between atoms: _702  and  _704
REMARK  284  A    between atoms: _704  and  _705
REMARK  285  A    between atoms: _704  and  _707
REMARK  286  A    between atoms: _707  and  _708
REMARK  287  A    between atoms: _708  and  _709
REMARK  288  A    between atoms: _712  and  _714
REMARK  289  A    between atoms: _714  and  _715
REMARK  290  A    between atoms: _714  and  _717
REMARK  291  A    between atoms: _717  and  _718
REMARK  292  A    between atoms: _718  and  _719
REMARK  293  A    between atoms: _719  and  _720
REMARK  294  A    between atoms: _729  and  _731
REMARK  295  A    between atoms: _731  and  _732
REMARK  296  A    between atoms: _731  and  _734
REMARK  297  A    between atoms: _734  and  _735
REMARK  298  A    between atoms: _738  and  _740
REMARK  299  A    between atoms: _740  and  _741
REMARK  300  A    between atoms: _740  and  _743
REMARK  301  A    between atoms: _743  and  _744
REMARK  302  A    between atoms: _744  and  _745
REMARK  303  A    between atoms: _745  and  _746
REMARK  304  A    between atoms: _755  and  _757
REMARK  305  A    between atoms: _757  and  _758
REMARK  306  A    between atoms: _761  and  _763
REMARK  307  A    between atoms: _763  and  _764
REMARK  308  A    between atoms: _763  and  _766
REMARK  309  A    between atoms: _766  and  _767
REMARK  310  A    between atoms: _772  and  _773
REMARK  311  A    between atoms: _775  and  _777
REMARK  312  A    between atoms: _777  and  _778
REMARK  313  A    between atoms: _777  and  _780
REMARK  314  A    between atoms: _780  and  _781
REMARK  315  A    between atoms: _784  and  _786
REMARK  316  A    between atoms: _786  and  _787
REMARK  317  A    between atoms: _786  and  _789
REMARK  318  A    between atoms: _789  and  _790
REMARK  319  A    between atoms: _793  and  _795
REMARK  320  A    between atoms: _795  and  _796
REMARK  321  A    between atoms: _795  and  _798
REMARK  322  A    between atoms: _800  and  _802
REMARK  323  A    between atoms: _802  and  _803
REMARK  324  A    between atoms: _802  and  _805
REMARK  325  A    between atoms: _808  and  _810
REMARK  326  A    between atoms: _810  and  _811
REMARK  327  A    between atoms: _810  and  _813
REMARK  328  A    between atoms: _813  and  _814
REMARK  329  A    between atoms: _814  and  _815
REMARK  330  A    between atoms: _818  and  _820
REMARK  331  A    between atoms: _820  and  _821
REMARK  332  A    between atoms: _820  and  _823
REMARK  333  A    between atoms: _823  and  _824
REMARK  334  A    between atoms: _834  and  _836
REMARK  335  A    between atoms: _836  and  _837
REMARK  336  A    between atoms: _836  and  _839
REMARK  337  A    between atoms: _839  and  _840
REMARK  338  A    between atoms: _843  and  _845
REMARK  339  A    between atoms: _845  and  _846
REMARK  340  A    between atoms: _845  and  _848
REMARK  341  A    between atoms: _848  and  _849
REMARK  342  A    between atoms: _849  and  _850
REMARK  343  A    between atoms: _850  and  _851
REMARK  344  A    between atoms: _860  and  _862
REMARK  345  A    between atoms: _862  and  _863
REMARK  346  A    between atoms: _862  and  _865
REMARK  347  A    between atoms: _865  and  _866
REMARK  348  A    between atoms: _871  and  _872
REMARK  349  A    between atoms: _874  and  _876
REMARK  350  A    between atoms: _876  and  _877
REMARK  351  A    between atoms: _876  and  _879
REMARK  352  A    between atoms: _879  and  _880
REMARK  353  A    between atoms: _880  and  _881
REMARK  354  A    between atoms: _886  and  _888
REMARK  355  A    between atoms: _888  and  _889
REMARK  356  A    between atoms: _888  and  _891
REMARK  357  A    between atoms: _891  and  _892
REMARK  358  A    between atoms: _895  and  _897
REMARK  359  A    between atoms: _897  and  _898
REMARK  360  A    between atoms: _897  and  _900
REMARK  361  A    between atoms: _900  and  _901
REMARK  362  A    between atoms: _903  and  _905
REMARK  363  A    between atoms: _905  and  _906
REMARK  364  A    between atoms: _905  and  _908
REMARK  365  A    between atoms: _908  and  _909
REMARK  366  A    between atoms: _911  and  _913
REMARK  367  A    between atoms: _913  and  _914
REMARK  368  A    between atoms: _913  and  _916
REMARK  369  A    between atoms: _916  and  _917
REMARK  370  A    between atoms: _923  and  _925
REMARK  371  A    between atoms: _925  and  _926
REMARK  372  A    between atoms: _925  and  _928
REMARK  373  A    between atoms: _928  and  _929
REMARK  374  A    between atoms: _929  and  _930
REMARK  375  A    between atoms: _930  and  _931
REMARK  376  A    between atoms: _940  and  _942
REMARK  377  A    between atoms: _942  and  _943
REMARK  378  A    between atoms: _942  and  _945
REMARK  379  A    between atoms: _945  and  _946
REMARK  380  A    between atoms: _946  and  _947
REMARK  381  A    between atoms: _947  and  _948
REMARK  382  A    between atoms: _957  and  _959
REMARK  383  A    between atoms: _959  and  _960
REMARK  384  A    between atoms: _962  and  _964
REMARK  385  A    between atoms: _964  and  _965
REMARK  386  A    between atoms: _964  and  _967
REMARK  387  A    between atoms: _967  and  _968
REMARK  388  A    between atoms: _974  and  _975
REMARK  389  A    between atoms: _980  and  _982
REMARK  390  A    between atoms: _982  and  _983
REMARK  391  A    between atoms: _982  and  _985
REMARK  392  A    between atoms: _985  and  _986
REMARK  393  A    between atoms: _996  and  _998
REMARK  394  A    between atoms: _998  and  _999
REMARK  395  A    between atoms: _998  and  _1001
REMARK  396  A    between atoms: _1001  and  _1002
REMARK  397  A    between atoms: _1002  and  _1003
REMARK  398  A    between atoms: _1003  and  _1004
REMARK  399  A    between atoms: _1013  and  _1015
REMARK  400  A    between atoms: _1015  and  _1016
REMARK  401  A    between atoms: _1015  and  _1018
REMARK  402  A    between atoms: _1018  and  _1019
REMARK  403  A    between atoms: _1021  and  _1023
REMARK  404  A    between atoms: _1023  and  _1024
REMARK  405  A    between atoms: _1027  and  _1029
REMARK  406  A    between atoms: _1029  and  _1030
REMARK  407  A    between atoms: _1029  and  _1032
REMARK  408  A    between atoms: _1032  and  _1033
REMARK  409  A    between atoms: _1036  and  _1038
REMARK  410  A    between atoms: _1038  and  _1039
REMARK  411  A    between atoms: _1038  and  _1041
REMARK  412  A    between atoms: _1041  and  _1042
REMARK  413  A    between atoms: _1042  and  _1043
REMARK  414  A    between atoms: _1043  and  _1044
REMARK  415  A    between atoms: _1053  and  _1055
REMARK  416  A    between atoms: _1055  and  _1056
REMARK  417  A    between atoms: _1055  and  _1058
REMARK  418  A    between atoms: _1061  and  _1063
REMARK  419  A    between atoms: _1063  and  _1064
REMARK  420  A    between atoms: _1066  and  _1068
REMARK  421  A    between atoms: _1068  and  _1069
REMARK  422  A    between atoms: _1068  and  _1071
REMARK  423  A    between atoms: _1071  and  _1072
REMARK                            x       y       z     vdW  Elec       q    Type
REMARK                         _______ _______ _______ _____ _____    ______ ____
ROOT
ATOM      1  O   HOH     1      24.117  26.505  54.624  0.00  0.00    +0.000 OA
ENDROOT
TORSDOF 0
REMARK  Name = ../refined-set-2016/1fo0/1fo0_pocket.pdb
REMARK  423 active torsions:
REMARK  status: ('A' for Active; 'I' for Inactive)
REMARK    1  A    between atoms: _1  and  _3
REMARK    2  A    between atoms: _3  and  _4
REMARK    3  A    between atoms: _3  and  _6
REMARK    4  A    between atoms: _6  and  _7
REMARK    5  A    between atoms: _10  and  _12
REMARK    6  A    between atoms: _12  and  _13
REMARK    7  A    between atoms: _12  and  _15
REMARK    8  A    between atoms: _15  and  _16
REMARK    9  A    between atoms: _16  and  _17
REMARK   10  A    between atoms: _17  and  _18
REMARK   11  A    between atoms: _27  and  _29
REMARK   12  A    between atoms: _29  and  _30
REMARK   13  A    between atoms: _29  and  _32
REMARK   14  A    between atoms: _32  and  _33
REMARK   15  A    between atoms: _38  and  _39
REMARK   16  A    between atoms: _41  and  _43
REMARK   17  A    between atoms: _43  and  _44
REMARK   18  A    between atoms: _43  and  _46
REMARK   19  A    between atoms: _46  and  _47
REMARK   20  A    between atoms: _53  and  _55
REMARK   21  A    between atoms: _55  and  _56
REMARK   22  A    between atoms: _55  and  _58
REMARK   23  A    between atoms: _61  and  _63
REMARK   24  A    between atoms: _63  and  _64
REMARK   25  A    between atoms: _63  and  _66
REMARK   26  A    between atoms: _66  and  _67
REMARK   27  A    between atoms: _70  and  _72
REMARK   28  A    between atoms: _72  and  _73
REMARK   29  A    between atoms: _72  and  _75
REMARK   30  A    between atoms: _75  and  _76
REMARK   31  A    between atoms: _81  and  _82
REMARK   32  A    between atoms: _84  and  _86
REMARK   33  A    between atoms: _86  and  _87
REMARK   34  A    between atoms: _86  and  _89
REMARK   35  A    between atoms: _89  and  _90
REMARK   36  A    between atoms: _90  and  _91
REMARK   37  A    between atoms: _93  and  _95
REMARK   38  A    between atoms: _95  and  _96
REMARK   39  A    between atoms: _95  and  _98
REMARK   40  A    between atoms: _98  and  _99
REMARK   41  A    between atoms: _99  and  _100
REMARK   42  A    between atoms: _103  and  _105
REMARK   43  A    between atoms: _105  and  _106
REMARK   44  A    between atoms: _105  and  _108
REMARK   45  A    between atoms: _111  and  _113
REMARK   46  A    between atoms: _113  and  _114
REMARK   47  A    between atoms: _116  and  _118
REMARK   48  A    between atoms: _118  and  _119
REMARK   49  A    between atoms: _118  and  _121
REMARK   50  A    between atoms: _121  and  _122
REMARK   51  A    between atoms: _128  and  _130
REMARK   52  A    between atoms: _130  and  _131
REMARK   53  A    between atoms: _130  and  _133
REMARK   54  A    between atoms: _136  and  _138
REMARK   55  A    between atoms: _138  and  _139
REMARK   56  A    between atoms: _138  and  _141
REMARK   57  A    between atoms: _141  and  _142
REMARK   58  A    between atoms: _148  and  _150
REMARK   59  A    between atoms: _150  and  _151
REMARK   60  A    between atoms: _150  and  _153
REMARK   61  A    between atoms: _153  and  _154
REMARK   62  A    between atoms: _159  and  _160
REMARK   63  A    between atoms: _162  and  _164
REMARK   64  A    between atoms: _164  and  _165
REMARK   65  A    between atoms: _164  and  _167
REMARK   66  A    between atoms: _167  and  _168
REMARK   67  A    between atoms: _168  and  _169
REMARK   68  A    between atoms: _171  and  _173
REMARK   69  A    between atoms: _173  and  _174
REMARK   70  A    between atoms: _173  and  _176
REMARK   71  A    between atoms: _176  and  _177
REMARK   72  A    between atoms: _177  and  _178
REMARK   73  A    between atoms: _181  and  _183
REMARK   74  A    between atoms: _183  and  _184
REMARK   75  A    between atoms: _183  and  _186
REMARK   76  A    between atoms: _186  and  _187
REMARK   77  A    between atoms: _192  and  _193
REMARK   78  A    between atoms: _195  and  _197
REMARK   79  A    between atoms: _197  and  _198
REMARK   80  A    between atoms: _197  and  _200
REMARK   81  A    between atoms: _200  and  _201
REMARK   82  A    between atoms: _201  and  _202
REMARK   83  A    between atoms: _202  and  _203
REMARK   84  A    between atoms: _212  and  _214
REMARK   85  A    between atoms: _214  and  _215
REMARK   86  A    between atoms: _214  and  _217
REMARK   87  A    between atoms: _217  and  _218
REMARK   88  A    between atoms: _218  and  _219
REMARK   89  A    between atoms: _222  and  _224
REMARK   90  A    between atoms: _224  and  _225
REMARK   91  A    between atoms: _224  and  _227
REMARK   92  A    between atoms: _227  and  _228
REMARK   93  A    between atoms: _228  and  _229
REMARK   94  A    between atoms: _234  and  _236
REMARK   95  A    between atoms: _236  and  _237
REMARK   96  A    between atoms: _236  and  _239
REMARK   97  A    between atoms: _239  and  _240
REMARK   98  A    between atoms: _240  and  _241
REMARK   99  A    between atoms: _241  and  _242
REMARK  100  A    between atoms: _242  and  _243
REMARK  101  A    between atoms: _247  and  _249
REMARK  102  A    between atoms: _249  and  _250
REMARK  103  A    between atoms: _253  and  _255
REMARK  104  A    between atoms: _255  and  _256
REMARK  105  A    between atoms: _255  and  _258
REMARK  106  A    between atoms: _258  and  _259
REMARK  107  A    between atoms: _259  and  _260
REMARK  108  A    between atoms: _260  and  _261
REMARK  109  A    between atoms: _261  and  _262
REMARK  110  A    between atoms: _266  and  _268
REMARK  111  A    between atoms: _268  and  _269
REMARK  112  A    between atoms: _271  and  _273
REMARK  113  A    between atoms: _273  and  _274
REMARK  114  A    between atoms: _273  and  _276
REMARK  115  A    between atoms: _276  and  _277
REMARK  116  A    between atoms: _282  and  _284
REMARK  117  A    between atoms: _284  and  _285
REMARK  118  A    between atoms: _284  and  _287
REMARK  119  A    between atoms: _287  and  _288
REMARK  120  A    between atoms: _288  and  _289
REMARK  121  A    between atoms: _292  and  _294
REMARK  122  A    between atoms: _294  and  _295
REMARK  123  A    between atoms: _294  and  _297
REMARK  124  A    between atoms: _297  and  _298
REMARK  125  A    between atoms: _298  and  _299
REMARK  126  A    between atoms: _304  and  _306
REMARK  127  A    between atoms: _306  and  _307
REMARK  128  A    between atoms: _306  and  _309
REMARK  129  A    between atoms: _309  and  _310
REMARK  130  A    between atoms: _312  and  _314
REMARK  131  A    between atoms: _314  and  _315
REMARK  132  A    between atoms: _314  and  _317
REMARK  133  A    between atoms: _317  and  _318
REMARK  134  A    between atoms: _324  and  _326
REMARK  135  A    between atoms: _326  and  _327
REMARK  136  A    between atoms: _326  and  _329
REMARK  137  A    between atoms: _329  and  _330
REMARK  138  A    between atoms: _330  and  _331
REMARK  139  A    between atoms: _331  and  _332
REMARK  140  A    between atoms: _341  and  _343
REMARK  141  A    between atoms: _343  and  _344
REMARK  142  A    between atoms: _343  and  _346
REMARK  143  A    between atoms: _349  and  _351
REMARK  144  A    between atoms: _351  and  _352
REMARK  145  A    between atoms: _351  and  _354
REMARK  146  A    between atoms: _354  and  _355
REMARK  147  A    between atoms: _358  and  _360
REMARK  148  A    between atoms: _360  and  _361
REMARK  149  A    between atoms: _360  and  _363
REMARK  150  A    between atoms: _363  and  _364
REMARK  151  A    between atoms: _367  and  _369
REMARK  152  A    between atoms: _369  and  _370
REMARK  153  A    between atoms: _369  and  _372
REMARK  154  A    between atoms: _372  and  _373
REMARK  155  A    between atoms: _373  and  _374
REMARK  156  A    between atoms: _374  and  _375
REMARK  157  A    between atoms: _384  and  _386
REMARK  158  A    between atoms: _386  and  _387
REMARK  159  A    between atoms: _386  and  _389
REMARK  160  A    between atoms: _389  and  _390
REMARK  161  A    between atoms: _393  and  _395
REMARK  162  A    between atoms: _395  and  _396
REMARK  163  A    between atoms: _395  and  _398
REMARK  164  A    between atoms: _398  and  _399
REMARK  165  A    between atoms: _402  and  _404
REMARK  166  A    between atoms: _404  and  _405
REMARK  167  A    between atoms: _404  and  _407
REMARK  168  A    between atoms: _407  and  _408
REMARK  169  A    between atoms: _411  and  _413
REMARK  170  A    between atoms: _413  and  _414
REMARK  171  A    between atoms: _413  and  _416
REMARK  172  A    between atoms: _416  and  _417
REMARK  173  A    between atoms: _422  and  _423
REMARK  174  A    between atoms: _425  and  _427
REMARK  175  A    between atoms: _427  and  _428
REMARK  176  A    between atoms: _427  and  _430
REMARK  177  A    between atoms: _430  and  _431
REMARK  178  A    between atoms: _436  and  _437
REMARK  179  A    between atoms: _439  and  _441
REMARK  180  A    between atoms: _441  and  _442
REMARK  181  A    between atoms: _441  and  _444
REMARK  182  A    between atoms: _444  and  _445
REMARK  183  A    between atoms: _448  and  _450
REMARK  184  A    between atoms: _450  and  _451
REMARK  185  A    between atoms: _450  and  _453
REMARK  186  A    between atoms: _456  and  _458
REMARK  187  A    between atoms: _458  and  _459
REMARK  188  A    between atoms: _458  and  _461
REMARK  189  A    between atoms: _461  and  _462
REMARK  190  A    between atoms: _465  and  _467
REMARK  191  A    between atoms: _467  and  _468
REMARK  192  A    between atoms: _467  and  _470
REMARK  193  A    between atoms: _470  and  _471
REMARK  194  A    between atoms: _473  and  _475
REMARK  195  A    between atoms: _475  and  _476
REMARK  196  A    between atoms: _478  and  _480
REMARK  197  A    between atoms: _480  and  _481
REMARK  198  A    between atoms: _480  and  _483
REMARK  199  A    between atoms: _483  and  _484
REMARK  200  A    between atoms: _489  and  _490
REMARK  201  A    between atoms: _492  and  _494
REMARK  202  A    between atoms: _494  and  _495
REMARK  203  A    between atoms: _494  and  _497
REMARK  204  A    between atoms: _497  and  _498
REMARK  205  A    between atoms: _498  and  _499
REMARK  206  A    between atoms: _504  and  _506
REMARK  207  A    between atoms: _506  and  _507
REMARK  208  A    between atoms: _506  and  _509
REMARK  209  A    between atoms: _509  and  _510
REMARK  210  A    between atoms: _510  and  _511
REMARK  211  A    between atoms: _516  and  _518
REMARK  212  A    between atoms: _518  and  _519
REMARK  213  A    between atoms: _518  and  _521
REMARK  214  A    between atoms: _521  and  _522
REMARK  215  A    between atoms: _527  and  _528
REMARK  216  A    between atoms: _530  and  _532
REMARK  217  A    between atoms: _532  and  _533
REMARK  218  A    between atoms: _532  and  _535
REMARK  219  A    between atoms: _535  and  _536
REMARK  220  A    between atoms: _541  and  _542
REMARK  221  A    between atoms: _544  and  _546
REMARK  222  A    between atoms: _546  and  _547
REMARK  223  A    between atoms: _546  and  _549
REMARK  224  A    between atoms: _549  and  _550
REMARK  225  A    between atoms: _555  and  _556
REMARK  226  A    between atoms: _558  and  _560
REMARK  227  A    between atoms: _560  and  _561
REMARK  228  A    between atoms: _560  and  _563
REMARK  229  A    between atoms: _563  and  _564
REMARK  230  A    between atoms: _567  and  _569
REMARK  231  A    between atoms: _569  and  _570
REMARK  232  A    between atoms: _569  and  _572
REMARK  233  A    between atoms: _572  and  _573
REMARK  234  A    between atoms: _583  and  _585
REMARK  235  A    between atoms: _585  and  _586
REMARK  236  A    between atoms: _589  and  _591
REMARK  237  A    between atoms: _591  and  _592
REMARK  238  A    between atoms: _595  and  _597
REMARK  239  A    between atoms: _597  and  _598
REMARK  240  A    between atoms: _597  and  _600
REMARK  241  A    between atoms: _600  and  _601
REMARK  242  A    between atoms: _604  and  _606
REMARK  243  A    between atoms: _606  and  _607
REMARK  244  A    between atoms: _606  and  _609
REMARK  245  A    between atoms: _609  and  _610
REMARK  246  A    between atoms: _613  and  _615
REMARK  247  A    between atoms: _615  and  _616
REMARK  248  A    between atoms: _615  and  _618
REMARK  249  A    between atoms: _618  and  _619
REMARK  250  A    between atoms: _622  and  _624
REMARK  251  A    between atoms: _624  and  _625
REMARK  252  A    between atoms: _624  and  _627
REMARK  253  A    between atoms: _627  and  _628
REMARK  254  A    between atoms: _628  and  _629
REMARK  255  A    between atoms: _629  and  _630
REMARK  256  A    between atoms: _630  and  _631
REMARK  257  A    between atoms: _635  and  _637
REMARK  258  A    between atoms: _637  and  _638
REMARK  259  A    between atoms: _637  and  _640
REMARK  260  A    between atoms: _640  and  _641
REMARK  261  A    between atoms: _646  and  _648
REMARK  262  A    between atoms: _648  and  _649
REMARK  263  A    between atoms: _648  and  _651
REMARK  264  A    between atoms: _651  and  _652
REMARK  265  A    between atoms: _652  and  _653
REMARK  266  A    between atoms: _653  and  _654
REMARK  267  A    between atoms: _654  and  _655
REMARK  268  A    between atoms: _659  and  _661
REMARK  269  A    between atoms: _661  and  _662
REMARK  270  A    between atoms: _661  and  _664
REMARK  271  A    between atoms: _664  and  _665
REMARK  272  A    between atoms: _675  and  _677
REMARK  273  A    between atoms: _677  and  _678
REMARK  274  A    between atoms: _681  and  _683
REMARK  275  A    between atoms: _683  and  _684
REMARK  276  A    between atoms: _686  and  _688
REMARK  277  A    between atoms: _688  and  _689
REMARK  278  A    between atoms: _688  and  _691
REMARK  279  A    between atoms: _691  and  _692
REMARK  280  A    between atoms: _692  and  _693
REMARK  281  A    between atoms: _696  and  _698
REMARK  282  A    between atoms: _698  and  _699
REMARK  283  A    between atoms: _702  and  _704
REMARK  284  A    between atoms: _704  and  _705
REMARK  285  A    between atoms: _704  and  _707
REMARK  286  A    between atoms: _707  and  _708
REMARK  287  A    between atoms: _708  and  _709
REMARK  288  A    between atoms: _712  and  _714
REMARK  289  A    between atoms: _714  and  _715
REMARK  290  A    between atoms: _714  and  _717
REMARK  291  A    between atoms: _717  and  _718
REMARK  292  A    between atoms: _718  and  _719
REMARK  293  A    between atoms: _719  and  _720
REMARK  294  A    between atoms: _729  and  _731
REMARK  295  A    between atoms: _731  and  _732
REMARK  296  A    between atoms: _731  and  _734
REMARK  297  A    between atoms: _734  and  _735
REMARK  298  A    between atoms: _738  and  _740
REMARK  299  A    between atoms: _740  and  _741
REMARK  300  A    between atoms: _740  and  _743
REMARK  301  A    between atoms: _743  and  _744
REMARK  302  A    between atoms: _744  and  _745
REMARK  303  A    between atoms: _745  and  _746
REMARK  304  A    between atoms: _755  and  _757
REMARK  305  A    between atoms: _757  and  _758
REMARK  306  A    between atoms: _761  and  _763
REMARK  307  A    between atoms: _763  and  _764
REMARK  308  A    between atoms: _763  and  _766
REMARK  309  A    between atoms: _766  and  _767
REMARK  310  A    between atoms: _772  and  _773
REMARK  311  A    between atoms: _775  and  _777
REMARK  312  A    between atoms: _777  and  _778
REMARK  313  A    between atoms: _777  and  _780
REMARK  314  A    between atoms: _780  and  _781
REMARK  315  A    between atoms: _784  and  _786
REMARK  316  A    between atoms: _786  and  _787
REMARK  317  A    between atoms: _786  and  _789
REMARK  318  A    between atoms: _789  and  _790
REMARK  319  A    between atoms: _793  and  _795
REMARK  320  A    between atoms: _795  and  _796
REMARK  321  A    between atoms: _795  and  _798
REMARK  322  A    between atoms: _800  and  _802
REMARK  323  A    between atoms: _802  and  _803
REMARK  324  A    between atoms: _802  and  _805
REMARK  325  A    between atoms: _808  and  _810
REMARK  326  A    between atoms: _810  and  _811
REMARK  327  A    between atoms: _810  and  _813
REMARK  328  A    between atoms: _813  and  _814
REMARK  329  A    between atoms: _814  and  _815
REMARK  330  A    between atoms: _818  and  _820
REMARK  331  A    between atoms: _820  and  _821
REMARK  332  A    between atoms: _820  and  _823
REMARK  333  A    between atoms: _823  and  _824
REMARK  334  A    between atoms: _834  and  _836
REMARK  335  A    between atoms: _836  and  _837
REMARK  336  A    between atoms: _836  and  _839
REMARK  337  A    between atoms: _839  and  _840
REMARK  338  A    between atoms: _843  and  _845
REMARK  339  A    between atoms: _845  and  _846
REMARK  340  A    between atoms: _845  and  _848
REMARK  341  A    between atoms: _848  and  _849
REMARK  342  A    between atoms: _849  and  _850
REMARK  343  A    between atoms: _850  and  _851
REMARK  344  A    between atoms: _860  and  _862
REMARK  345  A    between atoms: _862  and  _863
REMARK  346  A    between atoms: _862  and  _865
REMARK  347  A    between atoms: _865  and  _866
REMARK  348  A    between atoms: _871  and  _872
REMARK  349  A    between atoms: _874  and  _876
REMARK  350  A    between atoms: _876  and  _877
REMARK  351  A    between atoms: _876  and  _879
REMARK  352  A    between atoms: _879  and  _880
REMARK  353  A    between atoms: _880  and  _881
REMARK  354  A    between atoms: _886  and  _888
REMARK  355  A    between atoms: _888  and  _889
REMARK  356  A    between atoms: _888  and  _891
REMARK  357  A    between atoms: _891  and  _892
REMARK  358  A    between atoms: _895  and  _897
REMARK  359  A    between atoms: _897  and  _898
REMARK  360  A    between atoms: _897  and  _900
REMARK  361  A    between atoms: _900  and  _901
REMARK  362  A    between atoms: _903  and  _905
REMARK  363  A    between atoms: _905  and  _906
REMARK  364  A    between atoms: _905  and  _908
REMARK  365  A    between atoms: _908  and  _909
REMARK  366  A    between atoms: _911  and  _913
REMARK  367  A    between atoms: _913  and  _914
REMARK  368  A    between atoms: _913  and  _916
REMARK  369  A    between atoms: _916  and  _917
REMARK  370  A    between atoms: _923  and  _925
REMARK  371  A    between atoms: _925  and  _926
REMARK  372  A    between atoms: _925  and  _928
REMARK  373  A    between atoms: _928  and  _929
REMARK  374  A    between atoms: _929  and  _930
REMARK  375  A    between atoms: _930  and  _931
REMARK  376  A    between atoms: _940  and  _942
REMARK  377  A    between atoms: _942  and  _943
REMARK  378  A    between atoms: _942  and  _945
REMARK  379  A    between atoms: _945  and  _946
REMARK  380  A    between atoms: _946  and  _947
REMARK  381  A    between atoms: _947  and  _948
REMARK  382  A    between atoms: _957  and  _959
REMARK  383  A    between atoms: _959  and  _960
REMARK  384  A    between atoms: _962  and  _964
REMARK  385  A    between atoms: _964  and  _965
REMARK  386  A    between atoms: _964  and  _967
REMARK  387  A    between atoms: _967  and  _968
REMARK  388  A    between atoms: _974  and  _975
REMARK  389  A    between atoms: _980  and  _982
REMARK  390  A    between atoms: _982  and  _983
REMARK  391  A    between atoms: _982  and  _985
REMARK  392  A    between atoms: _985  and  _986
REMARK  393  A    between atoms: _996  and  _998
REMARK  394  A    between atoms: _998  and  _999
REMARK  395  A    between atoms: _998  and  _1001
REMARK  396  A    between atoms: _1001  and  _1002
REMARK  397  A    between atoms: _1002  and  _1003
REMARK  398  A    between atoms: _1003  and  _1004
REMARK  399  A    between atoms: _1013  and  _1015
REMARK  400  A    between atoms: _1015  and  _1016
REMARK  401  A    between atoms: _1015  and  _1018
REMARK  402  A    between atoms: _1018  and  _1019
REMARK  403  A    between atoms: _1021  and  _1023
REMARK  404  A    between atoms: _1023  and  _1024
REMARK  405  A    between atoms: _1027  and  _1029
REMARK  406  A    between atoms: _1029  and  _1030
REMARK  407  A    between atoms: _1029  and  _1032
REMARK  408  A    between atoms: _1032  and  _1033
REMARK  409  A    between atoms: _1036  and  _1038
REMARK  410  A    between atoms: _1038  and  _1039
REMARK  411  A    between atoms: _1038  and  _1041
REMARK  412  A    between atoms: _1041  and  _1042
REMARK  413  A    between atoms: _1042  and  _1043
REMARK  414  A    between atoms: _1043  and  _1044
REMARK  415  A    between atoms: _1053  and  _1055
REMARK  416  A    between atoms: _1055  and  _1056
REMARK  417  A    between atoms: _1055  and  _1058
REMARK  418  A    between atoms: _1061  and  _1063
REMARK  419  A    between atoms: _1063  and  _1064
REMARK  420  A    between atoms: _1066  and  _1068
REMARK  421  A    between atoms: _1068  and  _1069
REMARK  422  A    between atoms: _1068  and  _1071
REMARK  423  A    between atoms: _1071  and  _1072
REMARK                            x       y       z     vdW  Elec       q    Type
REMARK                         _______ _______ _______ _____ _____    ______ ____
ROOT
ATOM      1  O   HOH     1      25.398  31.906  59.378  0.00  0.00    +0.000 OA
ENDROOT
TORSDOF 0
REMARK  Name = ../refined-set-2016/1fo0/1fo0_pocket.pdb
REMARK  423 active torsions:
REMARK  status: ('A' for Active; 'I' for Inactive)
REMARK    1  A    between atoms: _1  and  _3
REMARK    2  A    between atoms: _3  and  _4
REMARK    3  A    between atoms: _3  and  _6
REMARK    4  A    between atoms: _6  and  _7
REMARK    5  A    between atoms: _10  and  _12
REMARK    6  A    between atoms: _12  and  _13
REMARK    7  A    between atoms: _12  and  _15
REMARK    8  A    between atoms: _15  and  _16
REMARK    9  A    between atoms: _16  and  _17
REMARK   10  A    between atoms: _17  and  _18
REMARK   11  A    between atoms: _27  and  _29
REMARK   12  A    between atoms: _29  and  _30
REMARK   13  A    between atoms: _29  and  _32
REMARK   14  A    between atoms: _32  and  _33
REMARK   15  A    between atoms: _38  and  _39
REMARK   16  A    between atoms: _41  and  _43
REMARK   17  A    between atoms: _43  and  _44
REMARK   18  A    between atoms: _43  and  _46
REMARK   19  A    between atoms: _46  and  _47
REMARK   20  A    between atoms: _53  and  _55
REMARK   21  A    between atoms: _55  and  _56
REMARK   22  A    between atoms: _55  and  _58
REMARK   23  A    between atoms: _61  and  _63
REMARK   24  A    between atoms: _63  and  _64
REMARK   25  A    between atoms: _63  and  _66
REMARK   26  A    between atoms: _66  and  _67
REMARK   27  A    between atoms: _70  and  _72
REMARK   28  A    between atoms: _72  and  _73
REMARK   29  A    between atoms: _72  and  _75
REMARK   30  A    between atoms: _75  and  _76
REMARK   31  A    between atoms: _81  and  _82
REMARK   32  A    between atoms: _84  and  _86
REMARK   33  A    between atoms: _86  and  _87
REMARK   34  A    between atoms: _86  and  _89
REMARK   35  A    between atoms: _89  and  _90
REMARK   36  A    between atoms: _90  and  _91
REMARK   37  A    between atoms: _93  and  _95
REMARK   38  A    between atoms: _95  and  _96
REMARK   39  A    between atoms: _95  and  _98
REMARK   40  A    between atoms: _98  and  _99
REMARK   41  A    between atoms: _99  and  _100
REMARK   42  A    between atoms: _103  and  _105
REMARK   43  A    between atoms: _105  and  _106
REMARK   44  A    between atoms: _105  and  _108
REMARK   45  A    between atoms: _111  and  _113
REMARK   46  A    between atoms: _113  and  _114
REMARK   47  A    between atoms: _116  and  _118
REMARK   48  A    between atoms: _118  and  _119
REMARK   49  A    between atoms: _118  and  _121
REMARK   50  A    between atoms: _121  and  _122
REMARK   51  A    between atoms: _128  and  _130
REMARK   52  A    between atoms: _130  and  _131
REMARK   53  A    between atoms: _130  and  _133
REMARK   54  A    between atoms: _136  and  _138
REMARK   55  A    between atoms: _138  and  _139
REMARK   56  A    between atoms: _138  and  _141
REMARK   57  A    between atoms: _141  and  _142
REMARK   58  A    between atoms: _148  and  _150
REMARK   59  A    between atoms: _150  and  _151
REMARK   60  A    between atoms: _150  and  _153
REMARK   61  A    between atoms: _153  and  _154
REMARK   62  A    between atoms: _159  and  _160
REMARK   63  A    between atoms: _162  and  _164
REMARK   64  A    between atoms: _164  and  _165
REMARK   65  A    between atoms: _164  and  _167
REMARK   66  A    between atoms: _167  and  _168
REMARK   67  A    between atoms: _168  and  _169
REMARK   68  A    between atoms: _171  and  _173
REMARK   69  A    between atoms: _173  and  _174
REMARK   70  A    between atoms: _173  and  _176
REMARK   71  A    between atoms: _176  and  _177
REMARK   72  A    between atoms: _177  and  _178
REMARK   73  A    between atoms: _181  and  _183
REMARK   74  A    between atoms: _183  and  _184
REMARK   75  A    between atoms: _183  and  _186
REMARK   76  A    between atoms: _186  and  _187
REMARK   77  A    between atoms: _192  and  _193
REMARK   78  A    between atoms: _195  and  _197
REMARK   79  A    between atoms: _197  and  _198
REMARK   80  A    between atoms: _197  and  _200
REMARK   81  A    between atoms: _200  and  _201
REMARK   82  A    between atoms: _201  and  _202
REMARK   83  A    between atoms: _202  and  _203
REMARK   84  A    between atoms: _212  and  _214
REMARK   85  A    between atoms: _214  and  _215
REMARK   86  A    between atoms: _214  and  _217
REMARK   87  A    between atoms: _217  and  _218
REMARK   88  A    between atoms: _218  and  _219
REMARK   89  A    between atoms: _222  and  _224
REMARK   90  A    between atoms: _224  and  _225
REMARK   91  A    between atoms: _224  and  _227
REMARK   92  A    between atoms: _227  and  _228
REMARK   93  A    between atoms: _228  and  _229
REMARK   94  A    between atoms: _234  and  _236
REMARK   95  A    between atoms: _236  and  _237
REMARK   96  A    between atoms: _236  and  _239
REMARK   97  A    between atoms: _239  and  _240
REMARK   98  A    between atoms: _240  and  _241
REMARK   99  A    between atoms: _241  and  _242
REMARK  100  A    between atoms: _242  and  _243
REMARK  101  A    between atoms: _247  and  _249
REMARK  102  A    between atoms: _249  and  _250
REMARK  103  A    between atoms: _253  and  _255
REMARK  104  A    between atoms: _255  and  _256
REMARK  105  A    between atoms: _255  and  _258
REMARK  106  A    between atoms: _258  and  _259
REMARK  107  A    between atoms: _259  and  _260
REMARK  108  A    between atoms: _260  and  _261
REMARK  109  A    between atoms: _261  and  _262
REMARK  110  A    between atoms: _266  and  _268
REMARK  111  A    between atoms: _268  and  _269
REMARK  112  A    between atoms: _271  and  _273
REMARK  113  A    between atoms: _273  and  _274
REMARK  114  A    between atoms: _273  and  _276
REMARK  115  A    between atoms: _276  and  _277
REMARK  116  A    between atoms: _282  and  _284
REMARK  117  A    between atoms: _284  and  _285
REMARK  118  A    between atoms: _284  and  _287
REMARK  119  A    between atoms: _287  and  _288
REMARK  120  A    between atoms: _288  and  _289
REMARK  121  A    between atoms: _292  and  _294
REMARK  122  A    between atoms: _294  and  _295
REMARK  123  A    between atoms: _294  and  _297
REMARK  124  A    between atoms: _297  and  _298
REMARK  125  A    between atoms: _298  and  _299
REMARK  126  A    between atoms: _304  and  _306
REMARK  127  A    between atoms: _306  and  _307
REMARK  128  A    between atoms: _306  and  _309
REMARK  129  A    between atoms: _309  and  _310
REMARK  130  A    between atoms: _312  and  _314
REMARK  131  A    between atoms: _314  and  _315
REMARK  132  A    between atoms: _314  and  _317
REMARK  133  A    between atoms: _317  and  _318
REMARK  134  A    between atoms: _324  and  _326
REMARK  135  A    between atoms: _326  and  _327
REMARK  136  A    between atoms: _326  and  _329
REMARK  137  A    between atoms: _329  and  _330
REMARK  138  A    between atoms: _330  and  _331
REMARK  139  A    between atoms: _331  and  _332
REMARK  140  A    between atoms: _341  and  _343
REMARK  141  A    between atoms: _343  and  _344
REMARK  142  A    between atoms: _343  and  _346
REMARK  143  A    between atoms: _349  and  _351
REMARK  144  A    between atoms: _351  and  _352
REMARK  145  A    between atoms: _351  and  _354
REMARK  146  A    between atoms: _354  and  _355
REMARK  147  A    between atoms: _358  and  _360
REMARK  148  A    between atoms: _360  and  _361
REMARK  149  A    between atoms: _360  and  _363
REMARK  150  A    between atoms: _363  and  _364
REMARK  151  A    between atoms: _367  and  _369
REMARK  152  A    between atoms: _369  and  _370
REMARK  153  A    between atoms: _369  and  _372
REMARK  154  A    between atoms: _372  and  _373
REMARK  155  A    between atoms: _373  and  _374
REMARK  156  A    between atoms: _374  and  _375
REMARK  157  A    between atoms: _384  and  _386
REMARK  158  A    between atoms: _386  and  _387
REMARK  159  A    between atoms: _386  and  _389
REMARK  160  A    between atoms: _389  and  _390
REMARK  161  A    between atoms: _393  and  _395
REMARK  162  A    between atoms: _395  and  _396
REMARK  163  A    between atoms: _395  and  _398
REMARK  164  A    between atoms: _398  and  _399
REMARK  165  A    between atoms: _402  and  _404
REMARK  166  A    between atoms: _404  and  _405
REMARK  167  A    between atoms: _404  and  _407
REMARK  168  A    between atoms: _407  and  _408
REMARK  169  A    between atoms: _411  and  _413
REMARK  170  A    between atoms: _413  and  _414
REMARK  171  A    between atoms: _413  and  _416
REMARK  172  A    between atoms: _416  and  _417
REMARK  173  A    between atoms: _422  and  _423
REMARK  174  A    between atoms: _425  and  _427
REMARK  175  A    between atoms: _427  and  _428
REMARK  176  A    between atoms: _427  and  _430
REMARK  177  A    between atoms: _430  and  _431
REMARK  178  A    between atoms: _436  and  _437
REMARK  179  A    between atoms: _439  and  _441
REMARK  180  A    between atoms: _441  and  _442
REMARK  181  A    between atoms: _441  and  _444
REMARK  182  A    between atoms: _444  and  _445
REMARK  183  A    between atoms: _448  and  _450
REMARK  184  A    between atoms: _450  and  _451
REMARK  185  A    between atoms: _450  and  _453
REMARK  186  A    between atoms: _456  and  _458
REMARK  187  A    between atoms: _458  and  _459
REMARK  188  A    between atoms: _458  and  _461
REMARK  189  A    between atoms: _461  and  _462
REMARK  190  A    between atoms: _465  and  _467
REMARK  191  A    between atoms: _467  and  _468
REMARK  192  A    between atoms: _467  and  _470
REMARK  193  A    between atoms: _470  and  _471
REMARK  194  A    between atoms: _473  and  _475
REMARK  195  A    between atoms: _475  and  _476
REMARK  196  A    between atoms: _478  and  _480
REMARK  197  A    between atoms: _480  and  _481
REMARK  198  A    between atoms: _480  and  _483
REMARK  199  A    between atoms: _483  and  _484
REMARK  200  A    between atoms: _489  and  _490
REMARK  201  A    between atoms: _492  and  _494
REMARK  202  A    between atoms: _494  and  _495
REMARK  203  A    between atoms: _494  and  _497
REMARK  204  A    between atoms: _497  and  _498
REMARK  205  A    between atoms: _498  and  _499
REMARK  206  A    between atoms: _504  and  _506
REMARK  207  A    between atoms: _506  and  _507
REMARK  208  A    between atoms: _506  and  _509
REMARK  209  A    between atoms: _509  and  _510
REMARK  210  A    between atoms: _510  and  _511
REMARK  211  A    between atoms: _516  and  _518
REMARK  212  A    between atoms: _518  and  _519
REMARK  213  A    between atoms: _518  and  _521
REMARK  214  A    between atoms: _521  and  _522
REMARK  215  A    between atoms: _527  and  _528
REMARK  216  A    between atoms: _530  and  _532
REMARK  217  A    between atoms: _532  and  _533
REMARK  218  A    between atoms: _532  and  _535
REMARK  219  A    between atoms: _535  and  _536
REMARK  220  A    between atoms: _541  and  _542
REMARK  221  A    between atoms: _544  and  _546
REMARK  222  A    between atoms: _546  and  _547
REMARK  223  A    between atoms: _546  and  _549
REMARK  224  A    between atoms: _549  and  _550
REMARK  225  A    between atoms: _555  and  _556
REMARK  226  A    between atoms: _558  and  _560
REMARK  227  A    between atoms: _560  and  _561
REMARK  228  A    between atoms: _560  and  _563
REMARK  229  A    between atoms: _563  and  _564
REMARK  230  A    between atoms: _567  and  _569
REMARK  231  A    between atoms: _569  and  _570
REMARK  232  A    between atoms: _569  and  _572
REMARK  233  A    between atoms: _572  and  _573
REMARK  234  A    between atoms: _583  and  _585
REMARK  235  A    between atoms: _585  and  _586
REMARK  236  A    between atoms: _589  and  _591
REMARK  237  A    between atoms: _591  and  _592
REMARK  238  A    between atoms: _595  and  _597
REMARK  239  A    between atoms: _597  and  _598
REMARK  240  A    between atoms: _597  and  _600
REMARK  241  A    between atoms: _600  and  _601
REMARK  242  A    between atoms: _604  and  _606
REMARK  243  A    between atoms: _606  and  _607
REMARK  244  A    between atoms: _606  and  _609
REMARK  245  A    between atoms: _609  and  _610
REMARK  246  A    between atoms: _613  and  _615
REMARK  247  A    between atoms: _615  and  _616
REMARK  248  A    between atoms: _615  and  _618
REMARK  249  A    between atoms: _618  and  _619
REMARK  250  A    between atoms: _622  and  _624
REMARK  251  A    between atoms: _624  and  _625
REMARK  252  A    between atoms: _624  and  _627
REMARK  253  A    between atoms: _627  and  _628
REMARK  254  A    between atoms: _628  and  _629
REMARK  255  A    between atoms: _629  and  _630
REMARK  256  A    between atoms: _630  and  _631
REMARK  257  A    between atoms: _635  and  _637
REMARK  258  A    between atoms: _637  and  _638
REMARK  259  A    between atoms: _637  and  _640
REMARK  260  A    between atoms: _640  and  _641
REMARK  261  A    between atoms: _646  and  _648
REMARK  262  A    between atoms: _648  and  _649
REMARK  263  A    between atoms: _648  and  _651
REMARK  264  A    between atoms: _651  and  _652
REMARK  265  A    between atoms: _652  and  _653
REMARK  266  A    between atoms: _653  and  _654
REMARK  267  A    between atoms: _654  and  _655
REMARK  268  A    between atoms: _659  and  _661
REMARK  269  A    between atoms: _661  and  _662
REMARK  270  A    between atoms: _661  and  _664
REMARK  271  A    between atoms: _664  and  _665
REMARK  272  A    between atoms: _675  and  _677
REMARK  273  A    between atoms: _677  and  _678
REMARK  274  A    between atoms: _681  and  _683
REMARK  275  A    between atoms: _683  and  _684
REMARK  276  A    between atoms: _686  and  _688
REMARK  277  A    between atoms: _688  and  _689
REMARK  278  A    between atoms: _688  and  _691
REMARK  279  A    between atoms: _691  and  _692
REMARK  280  A    between atoms: _692  and  _693
REMARK  281  A    between atoms: _696  and  _698
REMARK  282  A    between atoms: _698  and  _699
REMARK  283  A    between atoms: _702  and  _704
REMARK  284  A    between atoms: _704  and  _705
REMARK  285  A    between atoms: _704  and  _707
REMARK  286  A    between atoms: _707  and  _708
REMARK  287  A    between atoms: _708  and  _709
REMARK  288  A    between atoms: _712  and  _714
REMARK  289  A    between atoms: _714  and  _715
REMARK  290  A    between atoms: _714  and  _717
REMARK  291  A    between atoms: _717  and  _718
REMARK  292  A    between atoms: _718  and  _719
REMARK  293  A    between atoms: _719  and  _720
REMARK  294  A    between atoms: _729  and  _731
REMARK  295  A    between atoms: _731  and  _732
REMARK  296  A    between atoms: _731  and  _734
REMARK  297  A    between atoms: _734  and  _735
REMARK  298  A    between atoms: _738  and  _740
REMARK  299  A    between atoms: _740  and  _741
REMARK  300  A    between atoms: _740  and  _743
REMARK  301  A    between atoms: _743  and  _744
REMARK  302  A    between atoms: _744  and  _745
REMARK  303  A    between atoms: _745  and  _746
REMARK  304  A    between atoms: _755  and  _757
REMARK  305  A    between atoms: _757  and  _758
REMARK  306  A    between atoms: _761  and  _763
REMARK  307  A    between atoms: _763  and  _764
REMARK  308  A    between atoms: _763  and  _766
REMARK  309  A    between atoms: _766  and  _767
REMARK  310  A    between atoms: _772  and  _773
REMARK  311  A    between atoms: _775  and  _777
REMARK  312  A    between atoms: _777  and  _778
REMARK  313  A    between atoms: _777  and  _780
REMARK  314  A    between atoms: _780  and  _781
REMARK  315  A    between atoms: _784  and  _786
REMARK  316  A    between atoms: _786  and  _787
REMARK  317  A    between atoms: _786  and  _789
REMARK  318  A    between atoms: _789  and  _790
REMARK  319  A    between atoms: _793  and  _795
REMARK  320  A    between atoms: _795  and  _796
REMARK  321  A    between atoms: _795  and  _798
REMARK  322  A    between atoms: _800  and  _802
REMARK  323  A    between atoms: _802  and  _803
REMARK  324  A    between atoms: _802  and  _805
REMARK  325  A    between atoms: _808  and  _810
REMARK  326  A    between atoms: _810  and  _811
REMARK  327  A    between atoms: _810  and  _813
REMARK  328  A    between atoms: _813  and  _814
REMARK  329  A    between atoms: _814  and  _815
REMARK  330  A    between atoms: _818  and  _820
REMARK  331  A    between atoms: _820  and  _821
REMARK  332  A    between atoms: _820  and  _823
REMARK  333  A    between atoms: _823  and  _824
REMARK  334  A    between atoms: _834  and  _836
REMARK  335  A    between atoms: _836  and  _837
REMARK  336  A    between atoms: _836  and  _839
REMARK  337  A    between atoms: _839  and  _840
REMARK  338  A    between atoms: _843  and  _845
REMARK  339  A    between atoms: _845  and  _846
REMARK  340  A    between atoms: _845  and  _848
REMARK  341  A    between atoms: _848  and  _849
REMARK  342  A    between atoms: _849  and  _850
REMARK  343  A    between atoms: _850  and  _851
REMARK  344  A    between atoms: _860  and  _862
REMARK  345  A    between atoms: _862  and  _863
REMARK  346  A    between atoms: _862  and  _865
REMARK  347  A    between atoms: _865  and  _866
REMARK  348  A    between atoms: _871  and  _872
REMARK  349  A    between atoms: _874  and  _876
REMARK  350  A    between atoms: _876  and  _877
REMARK  351  A    between atoms: _876  and  _879
REMARK  352  A    between atoms: _879  and  _880
REMARK  353  A    between atoms: _880  and  _881
REMARK  354  A    between atoms: _886  and  _888
REMARK  355  A    between atoms: _888  and  _889
REMARK  356  A    between atoms: _888  and  _891
REMARK  357  A    between atoms: _891  and  _892
REMARK  358  A    between atoms: _895  and  _897
REMARK  359  A    between atoms: _897  and  _898
REMARK  360  A    between atoms: _897  and  _900
REMARK  361  A    between atoms: _900  and  _901
REMARK  362  A    between atoms: _903  and  _905
REMARK  363  A    between atoms: _905  and  _906
REMARK  364  A    between atoms: _905  and  _908
REMARK  365  A    between atoms: _908  and  _909
REMARK  366  A    between atoms: _911  and  _913
REMARK  367  A    between atoms: _913  and  _914
REMARK  368  A    between atoms: _913  and  _916
REMARK  369  A    between atoms: _916  and  _917
REMARK  370  A    between atoms: _923  and  _925
REMARK  371  A    between atoms: _925  and  _926
REMARK  372  A    between atoms: _925  and  _928
REMARK  373  A    between atoms: _928  and  _929
REMARK  374  A    between atoms: _929  and  _930
REMARK  375  A    between atoms: _930  and  _931
REMARK  376  A    between atoms: _940  and  _942
REMARK  377  A    between atoms: _942  and  _943
REMARK  378  A    between atoms: _942  and  _945
REMARK  379  A    between atoms: _945  and  _946
REMARK  380  A    between atoms: _946  and  _947
REMARK  381  A    between atoms: _947  and  _948
REMARK  382  A    between atoms: _957  and  _959
REMARK  383  A    between atoms: _959  and  _960
REMARK  384  A    between atoms: _962  and  _964
REMARK  385  A    between atoms: _964  and  _965
REMARK  386  A    between atoms: _964  and  _967
REMARK  387  A    between atoms: _967  and  _968
REMARK  388  A    between atoms: _974  and  _975
REMARK  389  A    between atoms: _980  and  _982
REMARK  390  A    between atoms: _982  and  _983
REMARK  391  A    between atoms: _982  and  _985
REMARK  392  A    between atoms: _985  and  _986
REMARK  393  A    between atoms: _996  and  _998
REMARK  394  A    between atoms: _998  and  _999
REMARK  395  A    between atoms: _998  and  _1001
REMARK  396  A    between atoms: _1001  and  _1002
REMARK  397  A    between atoms: _1002  and  _1003
REMARK  398  A    between atoms: _1003  and  _1004
REMARK  399  A    between atoms: _1013  and  _1015
REMARK  400  A    between atoms: _1015  and  _1016
REMARK  401  A    between atoms: _1015  and  _1018
REMARK  402  A    between atoms: _1018  and  _1019
REMARK  403  A    between atoms: _1021  and  _1023
REMARK  404  A    between atoms: _1023  and  _1024
REMARK  405  A    between atoms: _1027  and  _1029
REMARK  406  A    between atoms: _1029  and  _1030
REMARK  407  A    between atoms: _1029  and  _1032
REMARK  408  A    between atoms: _1032  and  _1033
REMARK  409  A    between atoms: _1036  and  _1038
REMARK  410  A    between atoms: _1038  and  _1039
REMARK  411  A    between atoms: _1038  and  _1041
REMARK  412  A    between atoms: _1041  and  _1042
REMARK  413  A    between atoms: _1042  and  _1043
REMARK  414  A    between atoms: _1043  and  _1044
REMARK  415  A    between atoms: _1053  and  _1055
REMARK  416  A    between atoms: _1055  and  _1056
REMARK  417  A    between atoms: _1055  and  _1058
REMARK  418  A    between atoms: _1061  and  _1063
REMARK  419  A    between atoms: _1063  and  _1064
REMARK  420  A    between atoms: _1066  and  _1068
REMARK  421  A    between atoms: _1068  and  _1069
REMARK  422  A    between atoms: _1068  and  _1071
REMARK  423  A    between atoms: _1071  and  _1072
REMARK                            x       y       z     vdW  Elec       q    Type
REMARK                         _______ _______ _______ _____ _____    ______ ____
ROOT
ATOM      1  O   HOH     1      25.263  35.320  59.869  0.00  0.00    +0.000 OA
ENDROOT
TORSDOF 0
REMARK  Name = ../refined-set-2016/1fo0/1fo0_pocket.pdb
REMARK  423 active torsions:
REMARK  status: ('A' for Active; 'I' for Inactive)
REMARK    1  A    between atoms: _1  and  _3
REMARK    2  A    between atoms: _3  and  _4
REMARK    3  A    between atoms: _3  and  _6
REMARK    4  A    between atoms: _6  and  _7
REMARK    5  A    between atoms: _10  and  _12
REMARK    6  A    between atoms: _12  and  _13
REMARK    7  A    between atoms: _12  and  _15
REMARK    8  A    between atoms: _15  and  _16
REMARK    9  A    between atoms: _16  and  _17
REMARK   10  A    between atoms: _17  and  _18
REMARK   11  A    between atoms: _27  and  _29
REMARK   12  A    between atoms: _29  and  _30
REMARK   13  A    between atoms: _29  and  _32
REMARK   14  A    between atoms: _32  and  _33
REMARK   15  A    between atoms: _38  and  _39
REMARK   16  A    between atoms: _41  and  _43
REMARK   17  A    between atoms: _43  and  _44
REMARK   18  A    between atoms: _43  and  _46
REMARK   19  A    between atoms: _46  and  _47
REMARK   20  A    between atoms: _53  and  _55
REMARK   21  A    between atoms: _55  and  _56
REMARK   22  A    between atoms: _55  and  _58
REMARK   23  A    between atoms: _61  and  _63
REMARK   24  A    between atoms: _63  and  _64
REMARK   25  A    between atoms: _63  and  _66
REMARK   26  A    between atoms: _66  and  _67
REMARK   27  A    between atoms: _70  and  _72
REMARK   28  A    between atoms: _72  and  _73
REMARK   29  A    between atoms: _72  and  _75
REMARK   30  A    between atoms: _75  and  _76
REMARK   31  A    between atoms: _81  and  _82
REMARK   32  A    between atoms: _84  and  _86
REMARK   33  A    between atoms: _86  and  _87
REMARK   34  A    between atoms: _86  and  _89
REMARK   35  A    between atoms: _89  and  _90
REMARK   36  A    between atoms: _90  and  _91
REMARK   37  A    between atoms: _93  and  _95
REMARK   38  A    between atoms: _95  and  _96
REMARK   39  A    between atoms: _95  and  _98
REMARK   40  A    between atoms: _98  and  _99
REMARK   41  A    between atoms: _99  and  _100
REMARK   42  A    between atoms: _103  and  _105
REMARK   43  A    between atoms: _105  and  _106
REMARK   44  A    between atoms: _105  and  _108
REMARK   45  A    between atoms: _111  and  _113
REMARK   46  A    between atoms: _113  and  _114
REMARK   47  A    between atoms: _116  and  _118
REMARK   48  A    between atoms: _118  and  _119
REMARK   49  A    between atoms: _118  and  _121
REMARK   50  A    between atoms: _121  and  _122
REMARK   51  A    between atoms: _128  and  _130
REMARK   52  A    between atoms: _130  and  _131
REMARK   53  A    between atoms: _130  and  _133
REMARK   54  A    between atoms: _136  and  _138
REMARK   55  A    between atoms: _138  and  _139
REMARK   56  A    between atoms: _138  and  _141
REMARK   57  A    between atoms: _141  and  _142
REMARK   58  A    between atoms: _148  and  _150
REMARK   59  A    between atoms: _150  and  _151
REMARK   60  A    between atoms: _150  and  _153
REMARK   61  A    between atoms: _153  and  _154
REMARK   62  A    between atoms: _159  and  _160
REMARK   63  A    between atoms: _162  and  _164
REMARK   64  A    between atoms: _164  and  _165
REMARK   65  A    between atoms: _164  and  _167
REMARK   66  A    between atoms: _167  and  _168
REMARK   67  A    between atoms: _168  and  _169
REMARK   68  A    between atoms: _171  and  _173
REMARK   69  A    between atoms: _173  and  _174
REMARK   70  A    between atoms: _173  and  _176
REMARK   71  A    between atoms: _176  and  _177
REMARK   72  A    between atoms: _177  and  _178
REMARK   73  A    between atoms: _181  and  _183
REMARK   74  A    between atoms: _183  and  _184
REMARK   75  A    between atoms: _183  and  _186
REMARK   76  A    between atoms: _186  and  _187
REMARK   77  A    between atoms: _192  and  _193
REMARK   78  A    between atoms: _195  and  _197
REMARK   79  A    between atoms: _197  and  _198
REMARK   80  A    between atoms: _197  and  _200
REMARK   81  A    between atoms: _200  and  _201
REMARK   82  A    between atoms: _201  and  _202
REMARK   83  A    between atoms: _202  and  _203
REMARK   84  A    between atoms: _212  and  _214
REMARK   85  A    between atoms: _214  and  _215
REMARK   86  A    between atoms: _214  and  _217
REMARK   87  A    between atoms: _217  and  _218
REMARK   88  A    between atoms: _218  and  _219
REMARK   89  A    between atoms: _222  and  _224
REMARK   90  A    between atoms: _224  and  _225
REMARK   91  A    between atoms: _224  and  _227
REMARK   92  A    between atoms: _227  and  _228
REMARK   93  A    between atoms: _228  and  _229
REMARK   94  A    between atoms: _234  and  _236
REMARK   95  A    between atoms: _236  and  _237
REMARK   96  A    between atoms: _236  and  _239
REMARK   97  A    between atoms: _239  and  _240
REMARK   98  A    between atoms: _240  and  _241
REMARK   99  A    between atoms: _241  and  _242
REMARK  100  A    between atoms: _242  and  _243
REMARK  101  A    between atoms: _247  and  _249
REMARK  102  A    between atoms: _249  and  _250
REMARK  103  A    between atoms: _253  and  _255
REMARK  104  A    between atoms: _255  and  _256
REMARK  105  A    between atoms: _255  and  _258
REMARK  106  A    between atoms: _258  and  _259
REMARK  107  A    between atoms: _259  and  _260
REMARK  108  A    between atoms: _260  and  _261
REMARK  109  A    between atoms: _261  and  _262
REMARK  110  A    between atoms: _266  and  _268
REMARK  111  A    between atoms: _268  and  _269
REMARK  112  A    between atoms: _271  and  _273
REMARK  113  A    between atoms: _273  and  _274
REMARK  114  A    between atoms: _273  and  _276
REMARK  115  A    between atoms: _276  and  _277
REMARK  116  A    between atoms: _282  and  _284
REMARK  117  A    between atoms: _284  and  _285
REMARK  118  A    between atoms: _284  and  _287
REMARK  119  A    between atoms: _287  and  _288
REMARK  120  A    between atoms: _288  and  _289
REMARK  121  A    between atoms: _292  and  _294
REMARK  122  A    between atoms: _294  and  _295
REMARK  123  A    between atoms: _294  and  _297
REMARK  124  A    between atoms: _297  and  _298
REMARK  125  A    between atoms: _298  and  _299
REMARK  126  A    between atoms: _304  and  _306
REMARK  127  A    between atoms: _306  and  _307
REMARK  128  A    between atoms: _306  and  _309
REMARK  129  A    between atoms: _309  and  _310
REMARK  130  A    between atoms: _312  and  _314
REMARK  131  A    between atoms: _314  and  _315
REMARK  132  A    between atoms: _314  and  _317
REMARK  133  A    between atoms: _317  and  _318
REMARK  134  A    between atoms: _324  and  _326
REMARK  135  A    between atoms: _326  and  _327
REMARK  136  A    between atoms: _326  and  _329
REMARK  137  A    between atoms: _329  and  _330
REMARK  138  A    between atoms: _330  and  _331
REMARK  139  A    between atoms: _331  and  _332
REMARK  140  A    between atoms: _341  and  _343
REMARK  141  A    between atoms: _343  and  _344
REMARK  142  A    between atoms: _343  and  _346
REMARK  143  A    between atoms: _349  and  _351
REMARK  144  A    between atoms: _351  and  _352
REMARK  145  A    between atoms: _351  and  _354
REMARK  146  A    between atoms: _354  and  _355
REMARK  147  A    between atoms: _358  and  _360
REMARK  148  A    between atoms: _360  and  _361
REMARK  149  A    between atoms: _360  and  _363
REMARK  150  A    between atoms: _363  and  _364
REMARK  151  A    between atoms: _367  and  _369
REMARK  152  A    between atoms: _369  and  _370
REMARK  153  A    between atoms: _369  and  _372
REMARK  154  A    between atoms: _372  and  _373
REMARK  155  A    between atoms: _373  and  _374
REMARK  156  A    between atoms: _374  and  _375
REMARK  157  A    between atoms: _384  and  _386
REMARK  158  A    between atoms: _386  and  _387
REMARK  159  A    between atoms: _386  and  _389
REMARK  160  A    between atoms: _389  and  _390
REMARK  161  A    between atoms: _393  and  _395
REMARK  162  A    between atoms: _395  and  _396
REMARK  163  A    between atoms: _395  and  _398
REMARK  164  A    between atoms: _398  and  _399
REMARK  165  A    between atoms: _402  and  _404
REMARK  166  A    between atoms: _404  and  _405
REMARK  167  A    between atoms: _404  and  _407
REMARK  168  A    between atoms: _407  and  _408
REMARK  169  A    between atoms: _411  and  _413
REMARK  170  A    between atoms: _413  and  _414
REMARK  171  A    between atoms: _413  and  _416
REMARK  172  A    between atoms: _416  and  _417
REMARK  173  A    between atoms: _422  and  _423
REMARK  174  A    between atoms: _425  and  _427
REMARK  175  A    between atoms: _427  and  _428
REMARK  176  A    between atoms: _427  and  _430
REMARK  177  A    between atoms: _430  and  _431
REMARK  178  A    between atoms: _436  and  _437
REMARK  179  A    between atoms: _439  and  _441
REMARK  180  A    between atoms: _441  and  _442
REMARK  181  A    between atoms: _441  and  _444
REMARK  182  A    between atoms: _444  and  _445
REMARK  183  A    between atoms: _448  and  _450
REMARK  184  A    between atoms: _450  and  _451
REMARK  185  A    between atoms: _450  and  _453
REMARK  186  A    between atoms: _456  and  _458
REMARK  187  A    between atoms: _458  and  _459
REMARK  188  A    between atoms: _458  and  _461
REMARK  189  A    between atoms: _461  and  _462
REMARK  190  A    between atoms: _465  and  _467
REMARK  191  A    between atoms: _467  and  _468
REMARK  192  A    between atoms: _467  and  _470
REMARK  193  A    between atoms: _470  and  _471
REMARK  194  A    between atoms: _473  and  _475
REMARK  195  A    between atoms: _475  and  _476
REMARK  196  A    between atoms: _478  and  _480
REMARK  197  A    between atoms: _480  and  _481
REMARK  198  A    between atoms: _480  and  _483
REMARK  199  A    between atoms: _483  and  _484
REMARK  200  A    between atoms: _489  and  _490
REMARK  201  A    between atoms: _492  and  _494
REMARK  202  A    between atoms: _494  and  _495
REMARK  203  A    between atoms: _494  and  _497
REMARK  204  A    between atoms: _497  and  _498
REMARK  205  A    between atoms: _498  and  _499
REMARK  206  A    between atoms: _504  and  _506
REMARK  207  A    between atoms: _506  and  _507
REMARK  208  A    between atoms: _506  and  _509
REMARK  209  A    between atoms: _509  and  _510
REMARK  210  A    between atoms: _510  and  _511
REMARK  211  A    between atoms: _516  and  _518
REMARK  212  A    between atoms: _518  and  _519
REMARK  213  A    between atoms: _518  and  _521
REMARK  214  A    between atoms: _521  and  _522
REMARK  215  A    between atoms: _527  and  _528
REMARK  216  A    between atoms: _530  and  _532
REMARK  217  A    between atoms: _532  and  _533
REMARK  218  A    between atoms: _532  and  _535
REMARK  219  A    between atoms: _535  and  _536
REMARK  220  A    between atoms: _541  and  _542
REMARK  221  A    between atoms: _544  and  _546
REMARK  222  A    between atoms: _546  and  _547
REMARK  223  A    between atoms: _546  and  _549
REMARK  224  A    between atoms: _549  and  _550
REMARK  225  A    between atoms: _555  and  _556
REMARK  226  A    between atoms: _558  and  _560
REMARK  227  A    between atoms: _560  and  _561
REMARK  228  A    between atoms: _560  and  _563
REMARK  229  A    between atoms: _563  and  _564
REMARK  230  A    between atoms: _567  and  _569
REMARK  231  A    between atoms: _569  and  _570
REMARK  232  A    between atoms: _569  and  _572
REMARK  233  A    between atoms: _572  and  _573
REMARK  234  A    between atoms: _583  and  _585
REMARK  235  A    between atoms: _585  and  _586
REMARK  236  A    between atoms: _589  and  _591
REMARK  237  A    between atoms: _591  and  _592
REMARK  238  A    between atoms: _595  and  _597
REMARK  239  A    between atoms: _597  and  _598
REMARK  240  A    between atoms: _597  and  _600
REMARK  241  A    between atoms: _600  and  _601
REMARK  242  A    between atoms: _604  and  _606
REMARK  243  A    between atoms: _606  and  _607
REMARK  244  A    between atoms: _606  and  _609
REMARK  245  A    between atoms: _609  and  _610
REMARK  246  A    between atoms: _613  and  _615
REMARK  247  A    between atoms: _615  and  _616
REMARK  248  A    between atoms: _615  and  _618
REMARK  249  A    between atoms: _618  and  _619
REMARK  250  A    between atoms: _622  and  _624
REMARK  251  A    between atoms: _624  and  _625
REMARK  252  A    between atoms: _624  and  _627
REMARK  253  A    between atoms: _627  and  _628
REMARK  254  A    between atoms: _628  and  _629
REMARK  255  A    between atoms: _629  and  _630
REMARK  256  A    between atoms: _630  and  _631
REMARK  257  A    between atoms: _635  and  _637
REMARK  258  A    between atoms: _637  and  _638
REMARK  259  A    between atoms: _637  and  _640
REMARK  260  A    between atoms: _640  and  _641
REMARK  261  A    between atoms: _646  and  _648
REMARK  262  A    between atoms: _648  and  _649
REMARK  263  A    between atoms: _648  and  _651
REMARK  264  A    between atoms: _651  and  _652
REMARK  265  A    between atoms: _652  and  _653
REMARK  266  A    between atoms: _653  and  _654
REMARK  267  A    between atoms: _654  and  _655
REMARK  268  A    between atoms: _659  and  _661
REMARK  269  A    between atoms: _661  and  _662
REMARK  270  A    between atoms: _661  and  _664
REMARK  271  A    between atoms: _664  and  _665
REMARK  272  A    between atoms: _675  and  _677
REMARK  273  A    between atoms: _677  and  _678
REMARK  274  A    between atoms: _681  and  _683
REMARK  275  A    between atoms: _683  and  _684
REMARK  276  A    between atoms: _686  and  _688
REMARK  277  A    between atoms: _688  and  _689
REMARK  278  A    between atoms: _688  and  _691
REMARK  279  A    between atoms: _691  and  _692
REMARK  280  A    between atoms: _692  and  _693
REMARK  281  A    between atoms: _696  and  _698
REMARK  282  A    between atoms: _698  and  _699
REMARK  283  A    between atoms: _702  and  _704
REMARK  284  A    between atoms: _704  and  _705
REMARK  285  A    between atoms: _704  and  _707
REMARK  286  A    between atoms: _707  and  _708
REMARK  287  A    between atoms: _708  and  _709
REMARK  288  A    between atoms: _712  and  _714
REMARK  289  A    between atoms: _714  and  _715
REMARK  290  A    between atoms: _714  and  _717
REMARK  291  A    between atoms: _717  and  _718
REMARK  292  A    between atoms: _718  and  _719
REMARK  293  A    between atoms: _719  and  _720
REMARK  294  A    between atoms: _729  and  _731
REMARK  295  A    between atoms: _731  and  _732
REMARK  296  A    between atoms: _731  and  _734
REMARK  297  A    between atoms: _734  and  _735
REMARK  298  A    between atoms: _738  and  _740
REMARK  299  A    between atoms: _740  and  _741
REMARK  300  A    between atoms: _740  and  _743
REMARK  301  A    between atoms: _743  and  _744
REMARK  302  A    between atoms: _744  and  _745
REMARK  303  A    between atoms: _745  and  _746
REMARK  304  A    between atoms: _755  and  _757
REMARK  305  A    between atoms: _757  and  _758
REMARK  306  A    between atoms: _761  and  _763
REMARK  307  A    between atoms: _763  and  _764
REMARK  308  A    between atoms: _763  and  _766
REMARK  309  A    between atoms: _766  and  _767
REMARK  310  A    between atoms: _772  and  _773
REMARK  311  A    between atoms: _775  and  _777
REMARK  312  A    between atoms: _777  and  _778
REMARK  313  A    between atoms: _777  and  _780
REMARK  314  A    between atoms: _780  and  _781
REMARK  315  A    between atoms: _784  and  _786
REMARK  316  A    between atoms: _786  and  _787
REMARK  317  A    between atoms: _786  and  _789
REMARK  318  A    between atoms: _789  and  _790
REMARK  319  A    between atoms: _793  and  _795
REMARK  320  A    between atoms: _795  and  _796
REMARK  321  A    between atoms: _795  and  _798
REMARK  322  A    between atoms: _800  and  _802
REMARK  323  A    between atoms: _802  and  _803
REMARK  324  A    between atoms: _802  and  _805
REMARK  325  A    between atoms: _808  and  _810
REMARK  326  A    between atoms: _810  and  _811
REMARK  327  A    between atoms: _810  and  _813
REMARK  328  A    between atoms: _813  and  _814
REMARK  329  A    between atoms: _814  and  _815
REMARK  330  A    between atoms: _818  and  _820
REMARK  331  A    between atoms: _820  and  _821
REMARK  332  A    between atoms: _820  and  _823
REMARK  333  A    between atoms: _823  and  _824
REMARK  334  A    between atoms: _834  and  _836
REMARK  335  A    between atoms: _836  and  _837
REMARK  336  A    between atoms: _836  and  _839
REMARK  337  A    between atoms: _839  and  _840
REMARK  338  A    between atoms: _843  and  _845
REMARK  339  A    between atoms: _845  and  _846
REMARK  340  A    between atoms: _845  and  _848
REMARK  341  A    between atoms: _848  and  _849
REMARK  342  A    between atoms: _849  and  _850
REMARK  343  A    between atoms: _850  and  _851
REMARK  344  A    between atoms: _860  and  _862
REMARK  345  A    between atoms: _862  and  _863
REMARK  346  A    between atoms: _862  and  _865
REMARK  347  A    between atoms: _865  and  _866
REMARK  348  A    between atoms: _871  and  _872
REMARK  349  A    between atoms: _874  and  _876
REMARK  350  A    between atoms: _876  and  _877
REMARK  351  A    between atoms: _876  and  _879
REMARK  352  A    between atoms: _879  and  _880
REMARK  353  A    between atoms: _880  and  _881
REMARK  354  A    between atoms: _886  and  _888
REMARK  355  A    between atoms: _888  and  _889
REMARK  356  A    between atoms: _888  and  _891
REMARK  357  A    between atoms: _891  and  _892
REMARK  358  A    between atoms: _895  and  _897
REMARK  359  A    between atoms: _897  and  _898
REMARK  360  A    between atoms: _897  and  _900
REMARK  361  A    between atoms: _900  and  _901
REMARK  362  A    between atoms: _903  and  _905
REMARK  363  A    between atoms: _905  and  _906
REMARK  364  A    between atoms: _905  and  _908
REMARK  365  A    between atoms: _908  and  _909
REMARK  366  A    between atoms: _911  and  _913
REMARK  367  A    between atoms: _913  and  _914
REMARK  368  A    between atoms: _913  and  _916
REMARK  369  A    between atoms: _916  and  _917
REMARK  370  A    between atoms: _923  and  _925
REMARK  371  A    between atoms: _925  and  _926
REMARK  372  A    between atoms: _925  and  _928
REMARK  373  A    between atoms: _928  and  _929
REMARK  374  A    between atoms: _929  and  _930
REMARK  375  A    between atoms: _930  and  _931
REMARK  376  A    between atoms: _940  and  _942
REMARK  377  A    between atoms: _942  and  _943
REMARK  378  A    between atoms: _942  and  _945
REMARK  379  A    between atoms: _945  and  _946
REMARK  380  A    between atoms: _946  and  _947
REMARK  381  A    between atoms: _947  and  _948
REMARK  382  A    between atoms: _957  and  _959
REMARK  383  A    between atoms: _959  and  _960
REMARK  384  A    between atoms: _962  and  _964
REMARK  385  A    between atoms: _964  and  _965
REMARK  386  A    between atoms: _964  and  _967
REMARK  387  A    between atoms: _967  and  _968
REMARK  388  A    between atoms: _974  and  _975
REMARK  389  A    between atoms: _980  and  _982
REMARK  390  A    between atoms: _982  and  _983
REMARK  391  A    between atoms: _982  and  _985
REMARK  392  A    between atoms: _985  and  _986
REMARK  393  A    between atoms: _996  and  _998
REMARK  394  A    between atoms: _998  and  _999
REMARK  395  A    between atoms: _998  and  _1001
REMARK  396  A    between atoms: _1001  and  _1002
REMARK  397  A    between atoms: _1002  and  _1003
REMARK  398  A    between atoms: _1003  and  _1004
REMARK  399  A    between atoms: _1013  and  _1015
REMARK  400  A    between atoms: _1015  and  _1016
REMARK  401  A    between atoms: _1015  and  _1018
REMARK  402  A    between atoms: _1018  and  _1019
REMARK  403  A    between atoms: _1021  and  _1023
REMARK  404  A    between atoms: _1023  and  _1024
REMARK  405  A    between atoms: _1027  and  _1029
REMARK  406  A    between atoms: _1029  and  _1030
REMARK  407  A    between atoms: _1029  and  _1032
REMARK  408  A    between atoms: _1032  and  _1033
REMARK  409  A    between atoms: _1036  and  _1038
REMARK  410  A    between atoms: _1038  and  _1039
REMARK  411  A    between atoms: _1038  and  _1041
REMARK  412  A    between atoms: _1041  and  _1042
REMARK  413  A    between atoms: _1042  and  _1043
REMARK  414  A    between atoms: _1043  and  _1044
REMARK  415  A    between atoms: _1053  and  _1055
REMARK  416  A    between atoms: _1055  and  _1056
REMARK  417  A    between atoms: _1055  and  _1058
REMARK  418  A    between atoms: _1061  and  _1063
REMARK  419  A    between atoms: _1063  and  _1064
REMARK  420  A    between atoms: _1066  and  _1068
REMARK  421  A    between atoms: _1068  and  _1069
REMARK  422  A    between atoms: _1068  and  _1071
REMARK  423  A    between atoms: _1071  and  _1072
REMARK                            x       y       z     vdW  Elec       q    Type
REMARK                         _______ _______ _______ _____ _____    ______ ____
ROOT
ATOM      1  O   HOH     1      22.926  30.342  57.556  0.00  0.00    +0.000 OA
ENDROOT
TORSDOF 0
REMARK  Name = ../refined-set-2016/1fo0/1fo0_pocket.pdb
REMARK  423 active torsions:
REMARK  status: ('A' for Active; 'I' for Inactive)
REMARK    1  A    between atoms: _1  and  _3
REMARK    2  A    between atoms: _3  and  _4
REMARK    3  A    between atoms: _3  and  _6
REMARK    4  A    between atoms: _6  and  _7
REMARK    5  A    between atoms: _10  and  _12
REMARK    6  A    between atoms: _12  and  _13
REMARK    7  A    between atoms: _12  and  _15
REMARK    8  A    between atoms: _15  and  _16
REMARK    9  A    between atoms: _16  and  _17
REMARK   10  A    between atoms: _17  and  _18
REMARK   11  A    between atoms: _27  and  _29
REMARK   12  A    between atoms: _29  and  _30
REMARK   13  A    between atoms: _29  and  _32
REMARK   14  A    between atoms: _32  and  _33
REMARK   15  A    between atoms: _38  and  _39
REMARK   16  A    between atoms: _41  and  _43
REMARK   17  A    between atoms: _43  and  _44
REMARK   18  A    between atoms: _43  and  _46
REMARK   19  A    between atoms: _46  and  _47
REMARK   20  A    between atoms: _53  and  _55
REMARK   21  A    between atoms: _55  and  _56
REMARK   22  A    between atoms: _55  and  _58
REMARK   23  A    between atoms: _61  and  _63
REMARK   24  A    between atoms: _63  and  _64
REMARK   25  A    between atoms: _63  and  _66
REMARK   26  A    between atoms: _66  and  _67
REMARK   27  A    between atoms: _70  and  _72
REMARK   28  A    between atoms: _72  and  _73
REMARK   29  A    between atoms: _72  and  _75
REMARK   30  A    between atoms: _75  and  _76
REMARK   31  A    between atoms: _81  and  _82
REMARK   32  A    between atoms: _84  and  _86
REMARK   33  A    between atoms: _86  and  _87
REMARK   34  A    between atoms: _86  and  _89
REMARK   35  A    between atoms: _89  and  _90
REMARK   36  A    between atoms: _90  and  _91
REMARK   37  A    between atoms: _93  and  _95
REMARK   38  A    between atoms: _95  and  _96
REMARK   39  A    between atoms: _95  and  _98
REMARK   40  A    between atoms: _98  and  _99
REMARK   41  A    between atoms: _99  and  _100
REMARK   42  A    between atoms: _103  and  _105
REMARK   43  A    between atoms: _105  and  _106
REMARK   44  A    between atoms: _105  and  _108
REMARK   45  A    between atoms: _111  and  _113
REMARK   46  A    between atoms: _113  and  _114
REMARK   47  A    between atoms: _116  and  _118
REMARK   48  A    between atoms: _118  and  _119
REMARK   49  A    between atoms: _118  and  _121
REMARK   50  A    between atoms: _121  and  _122
REMARK   51  A    between atoms: _128  and  _130
REMARK   52  A    between atoms: _130  and  _131
REMARK   53  A    between atoms: _130  and  _133
REMARK   54  A    between atoms: _136  and  _138
REMARK   55  A    between atoms: _138  and  _139
REMARK   56  A    between atoms: _138  and  _141
REMARK   57  A    between atoms: _141  and  _142
REMARK   58  A    between atoms: _148  and  _150
REMARK   59  A    between atoms: _150  and  _151
REMARK   60  A    between atoms: _150  and  _153
REMARK   61  A    between atoms: _153  and  _154
REMARK   62  A    between atoms: _159  and  _160
REMARK   63  A    between atoms: _162  and  _164
REMARK   64  A    between atoms: _164  and  _165
REMARK   65  A    between atoms: _164  and  _167
REMARK   66  A    between atoms: _167  and  _168
REMARK   67  A    between atoms: _168  and  _169
REMARK   68  A    between atoms: _171  and  _173
REMARK   69  A    between atoms: _173  and  _174
REMARK   70  A    between atoms: _173  and  _176
REMARK   71  A    between atoms: _176  and  _177
REMARK   72  A    between atoms: _177  and  _178
REMARK   73  A    between atoms: _181  and  _183
REMARK   74  A    between atoms: _183  and  _184
REMARK   75  A    between atoms: _183  and  _186
REMARK   76  A    between atoms: _186  and  _187
REMARK   77  A    between atoms: _192  and  _193
REMARK   78  A    between atoms: _195  and  _197
REMARK   79  A    between atoms: _197  and  _198
REMARK   80  A    between atoms: _197  and  _200
REMARK   81  A    between atoms: _200  and  _201
REMARK   82  A    between atoms: _201  and  _202
REMARK   83  A    between atoms: _202  and  _203
REMARK   84  A    between atoms: _212  and  _214
REMARK   85  A    between atoms: _214  and  _215
REMARK   86  A    between atoms: _214  and  _217
REMARK   87  A    between atoms: _217  and  _218
REMARK   88  A    between atoms: _218  and  _219
REMARK   89  A    between atoms: _222  and  _224
REMARK   90  A    between atoms: _224  and  _225
REMARK   91  A    between atoms: _224  and  _227
REMARK   92  A    between atoms: _227  and  _228
REMARK   93  A    between atoms: _228  and  _229
REMARK   94  A    between atoms: _234  and  _236
REMARK   95  A    between atoms: _236  and  _237
REMARK   96  A    between atoms: _236  and  _239
REMARK   97  A    between atoms: _239  and  _240
REMARK   98  A    between atoms: _240  and  _241
REMARK   99  A    between atoms: _241  and  _242
REMARK  100  A    between atoms: _242  and  _243
REMARK  101  A    between atoms: _247  and  _249
REMARK  102  A    between atoms: _249  and  _250
REMARK  103  A    between atoms: _253  and  _255
REMARK  104  A    between atoms: _255  and  _256
REMARK  105  A    between atoms: _255  and  _258
REMARK  106  A    between atoms: _258  and  _259
REMARK  107  A    between atoms: _259  and  _260
REMARK  108  A    between atoms: _260  and  _261
REMARK  109  A    between atoms: _261  and  _262
REMARK  110  A    between atoms: _266  and  _268
REMARK  111  A    between atoms: _268  and  _269
REMARK  112  A    between atoms: _271  and  _273
REMARK  113  A    between atoms: _273  and  _274
REMARK  114  A    between atoms: _273  and  _276
REMARK  115  A    between atoms: _276  and  _277
REMARK  116  A    between atoms: _282  and  _284
REMARK  117  A    between atoms: _284  and  _285
REMARK  118  A    between atoms: _284  and  _287
REMARK  119  A    between atoms: _287  and  _288
REMARK  120  A    between atoms: _288  and  _289
REMARK  121  A    between atoms: _292  and  _294
REMARK  122  A    between atoms: _294  and  _295
REMARK  123  A    between atoms: _294  and  _297
REMARK  124  A    between atoms: _297  and  _298
REMARK  125  A    between atoms: _298  and  _299
REMARK  126  A    between atoms: _304  and  _306
REMARK  127  A    between atoms: _306  and  _307
REMARK  128  A    between atoms: _306  and  _309
REMARK  129  A    between atoms: _309  and  _310
REMARK  130  A    between atoms: _312  and  _314
REMARK  131  A    between atoms: _314  and  _315
REMARK  132  A    between atoms: _314  and  _317
REMARK  133  A    between atoms: _317  and  _318
REMARK  134  A    between atoms: _324  and  _326
REMARK  135  A    between atoms: _326  and  _327
REMARK  136  A    between atoms: _326  and  _329
REMARK  137  A    between atoms: _329  and  _330
REMARK  138  A    between atoms: _330  and  _331
REMARK  139  A    between atoms: _331  and  _332
REMARK  140  A    between atoms: _341  and  _343
REMARK  141  A    between atoms: _343  and  _344
REMARK  142  A    between atoms: _343  and  _346
REMARK  143  A    between atoms: _349  and  _351
REMARK  144  A    between atoms: _351  and  _352
REMARK  145  A    between atoms: _351  and  _354
REMARK  146  A    between atoms: _354  and  _355
REMARK  147  A    between atoms: _358  and  _360
REMARK  148  A    between atoms: _360  and  _361
REMARK  149  A    between atoms: _360  and  _363
REMARK  150  A    between atoms: _363  and  _364
REMARK  151  A    between atoms: _367  and  _369
REMARK  152  A    between atoms: _369  and  _370
REMARK  153  A    between atoms: _369  and  _372
REMARK  154  A    between atoms: _372  and  _373
REMARK  155  A    between atoms: _373  and  _374
REMARK  156  A    between atoms: _374  and  _375
REMARK  157  A    between atoms: _384  and  _386
REMARK  158  A    between atoms: _386  and  _387
REMARK  159  A    between atoms: _386  and  _389
REMARK  160  A    between atoms: _389  and  _390
REMARK  161  A    between atoms: _393  and  _395
REMARK  162  A    between atoms: _395  and  _396
REMARK  163  A    between atoms: _395  and  _398
REMARK  164  A    between atoms: _398  and  _399
REMARK  165  A    between atoms: _402  and  _404
REMARK  166  A    between atoms: _404  and  _405
REMARK  167  A    between atoms: _404  and  _407
REMARK  168  A    between atoms: _407  and  _408
REMARK  169  A    between atoms: _411  and  _413
REMARK  170  A    between atoms: _413  and  _414
REMARK  171  A    between atoms: _413  and  _416
REMARK  172  A    between atoms: _416  and  _417
REMARK  173  A    between atoms: _422  and  _423
REMARK  174  A    between atoms: _425  and  _427
REMARK  175  A    between atoms: _427  and  _428
REMARK  176  A    between atoms: _427  and  _430
REMARK  177  A    between atoms: _430  and  _431
REMARK  178  A    between atoms: _436  and  _437
REMARK  179  A    between atoms: _439  and  _441
REMARK  180  A    between atoms: _441  and  _442
REMARK  181  A    between atoms: _441  and  _444
REMARK  182  A    between atoms: _444  and  _445
REMARK  183  A    between atoms: _448  and  _450
REMARK  184  A    between atoms: _450  and  _451
REMARK  185  A    between atoms: _450  and  _453
REMARK  186  A    between atoms: _456  and  _458
REMARK  187  A    between atoms: _458  and  _459
REMARK  188  A    between atoms: _458  and  _461
REMARK  189  A    between atoms: _461  and  _462
REMARK  190  A    between atoms: _465  and  _467
REMARK  191  A    between atoms: _467  and  _468
REMARK  192  A    between atoms: _467  and  _470
REMARK  193  A    between atoms: _470  and  _471
REMARK  194  A    between atoms: _473  and  _475
REMARK  195  A    between atoms: _475  and  _476
REMARK  196  A    between atoms: _478  and  _480
REMARK  197  A    between atoms: _480  and  _481
REMARK  198  A    between atoms: _480  and  _483
REMARK  199  A    between atoms: _483  and  _484
REMARK  200  A    between atoms: _489  and  _490
REMARK  201  A    between atoms: _492  and  _494
REMARK  202  A    between atoms: _494  and  _495
REMARK  203  A    between atoms: _494  and  _497
REMARK  204  A    between atoms: _497  and  _498
REMARK  205  A    between atoms: _498  and  _499
REMARK  206  A    between atoms: _504  and  _506
REMARK  207  A    between atoms: _506  and  _507
REMARK  208  A    between atoms: _506  and  _509
REMARK  209  A    between atoms: _509  and  _510
REMARK  210  A    between atoms: _510  and  _511
REMARK  211  A    between atoms: _516  and  _518
REMARK  212  A    between atoms: _518  and  _519
REMARK  213  A    between atoms: _518  and  _521
REMARK  214  A    between atoms: _521  and  _522
REMARK  215  A    between atoms: _527  and  _528
REMARK  216  A    between atoms: _530  and  _532
REMARK  217  A    between atoms: _532  and  _533
REMARK  218  A    between atoms: _532  and  _535
REMARK  219  A    between atoms: _535  and  _536
REMARK  220  A    between atoms: _541  and  _542
REMARK  221  A    between atoms: _544  and  _546
REMARK  222  A    between atoms: _546  and  _547
REMARK  223  A    between atoms: _546  and  _549
REMARK  224  A    between atoms: _549  and  _550
REMARK  225  A    between atoms: _555  and  _556
REMARK  226  A    between atoms: _558  and  _560
REMARK  227  A    between atoms: _560  and  _561
REMARK  228  A    between atoms: _560  and  _563
REMARK  229  A    between atoms: _563  and  _564
REMARK  230  A    between atoms: _567  and  _569
REMARK  231  A    between atoms: _569  and  _570
REMARK  232  A    between atoms: _569  and  _572
REMARK  233  A    between atoms: _572  and  _573
REMARK  234  A    between atoms: _583  and  _585
REMARK  235  A    between atoms: _585  and  _586
REMARK  236  A    between atoms: _589  and  _591
REMARK  237  A    between atoms: _591  and  _592
REMARK  238  A    between atoms: _595  and  _597
REMARK  239  A    between atoms: _597  and  _598
REMARK  240  A    between atoms: _597  and  _600
REMARK  241  A    between atoms: _600  and  _601
REMARK  242  A    between atoms: _604  and  _606
REMARK  243  A    between atoms: _606  and  _607
REMARK  244  A    between atoms: _606  and  _609
REMARK  245  A    between atoms: _609  and  _610
REMARK  246  A    between atoms: _613  and  _615
REMARK  247  A    between atoms: _615  and  _616
REMARK  248  A    between atoms: _615  and  _618
REMARK  249  A    between atoms: _618  and  _619
REMARK  250  A    between atoms: _622  and  _624
REMARK  251  A    between atoms: _624  and  _625
REMARK  252  A    between atoms: _624  and  _627
REMARK  253  A    between atoms: _627  and  _628
REMARK  254  A    between atoms: _628  and  _629
REMARK  255  A    between atoms: _629  and  _630
REMARK  256  A    between atoms: _630  and  _631
REMARK  257  A    between atoms: _635  and  _637
REMARK  258  A    between atoms: _637  and  _638
REMARK  259  A    between atoms: _637  and  _640
REMARK  260  A    between atoms: _640  and  _641
REMARK  261  A    between atoms: _646  and  _648
REMARK  262  A    between atoms: _648  and  _649
REMARK  263  A    between atoms: _648  and  _651
REMARK  264  A    between atoms: _651  and  _652
REMARK  265  A    between atoms: _652  and  _653
REMARK  266  A    between atoms: _653  and  _654
REMARK  267  A    between atoms: _654  and  _655
REMARK  268  A    between atoms: _659  and  _661
REMARK  269  A    between atoms: _661  and  _662
REMARK  270  A    between atoms: _661  and  _664
REMARK  271  A    between atoms: _664  and  _665
REMARK  272  A    between atoms: _675  and  _677
REMARK  273  A    between atoms: _677  and  _678
REMARK  274  A    between atoms: _681  and  _683
REMARK  275  A    between atoms: _683  and  _684
REMARK  276  A    between atoms: _686  and  _688
REMARK  277  A    between atoms: _688  and  _689
REMARK  278  A    between atoms: _688  and  _691
REMARK  279  A    between atoms: _691  and  _692
REMARK  280  A    between atoms: _692  and  _693
REMARK  281  A    between atoms: _696  and  _698
REMARK  282  A    between atoms: _698  and  _699
REMARK  283  A    between atoms: _702  and  _704
REMARK  284  A    between atoms: _704  and  _705
REMARK  285  A    between atoms: _704  and  _707
REMARK  286  A    between atoms: _707  and  _708
REMARK  287  A    between atoms: _708  and  _709
REMARK  288  A    between atoms: _712  and  _714
REMARK  289  A    between atoms: _714  and  _715
REMARK  290  A    between atoms: _714  and  _717
REMARK  291  A    between atoms: _717  and  _718
REMARK  292  A    between atoms: _718  and  _719
REMARK  293  A    between atoms: _719  and  _720
REMARK  294  A    between atoms: _729  and  _731
REMARK  295  A    between atoms: _731  and  _732
REMARK  296  A    between atoms: _731  and  _734
REMARK  297  A    between atoms: _734  and  _735
REMARK  298  A    between atoms: _738  and  _740
REMARK  299  A    between atoms: _740  and  _741
REMARK  300  A    between atoms: _740  and  _743
REMARK  301  A    between atoms: _743  and  _744
REMARK  302  A    between atoms: _744  and  _745
REMARK  303  A    between atoms: _745  and  _746
REMARK  304  A    between atoms: _755  and  _757
REMARK  305  A    between atoms: _757  and  _758
REMARK  306  A    between atoms: _761  and  _763
REMARK  307  A    between atoms: _763  and  _764
REMARK  308  A    between atoms: _763  and  _766
REMARK  309  A    between atoms: _766  and  _767
REMARK  310  A    between atoms: _772  and  _773
REMARK  311  A    between atoms: _775  and  _777
REMARK  312  A    between atoms: _777  and  _778
REMARK  313  A    between atoms: _777  and  _780
REMARK  314  A    between atoms: _780  and  _781
REMARK  315  A    between atoms: _784  and  _786
REMARK  316  A    between atoms: _786  and  _787
REMARK  317  A    between atoms: _786  and  _789
REMARK  318  A    between atoms: _789  and  _790
REMARK  319  A    between atoms: _793  and  _795
REMARK  320  A    between atoms: _795  and  _796
REMARK  321  A    between atoms: _795  and  _798
REMARK  322  A    between atoms: _800  and  _802
REMARK  323  A    between atoms: _802  and  _803
REMARK  324  A    between atoms: _802  and  _805
REMARK  325  A    between atoms: _808  and  _810
REMARK  326  A    between atoms: _810  and  _811
REMARK  327  A    between atoms: _810  and  _813
REMARK  328  A    between atoms: _813  and  _814
REMARK  329  A    between atoms: _814  and  _815
REMARK  330  A    between atoms: _818  and  _820
REMARK  331  A    between atoms: _820  and  _821
REMARK  332  A    between atoms: _820  and  _823
REMARK  333  A    between atoms: _823  and  _824
REMARK  334  A    between atoms: _834  and  _836
REMARK  335  A    between atoms: _836  and  _837
REMARK  336  A    between atoms: _836  and  _839
REMARK  337  A    between atoms: _839  and  _840
REMARK  338  A    between atoms: _843  and  _845
REMARK  339  A    between atoms: _845  and  _846
REMARK  340  A    between atoms: _845  and  _848
REMARK  341  A    between atoms: _848  and  _849
REMARK  342  A    between atoms: _849  and  _850
REMARK  343  A    between atoms: _850  and  _851
REMARK  344  A    between atoms: _860  and  _862
REMARK  345  A    between atoms: _862  and  _863
REMARK  346  A    between atoms: _862  and  _865
REMARK  347  A    between atoms: _865  and  _866
REMARK  348  A    between atoms: _871  and  _872
REMARK  349  A    between atoms: _874  and  _876
REMARK  350  A    between atoms: _876  and  _877
REMARK  351  A    between atoms: _876  and  _879
REMARK  352  A    between atoms: _879  and  _880
REMARK  353  A    between atoms: _880  and  _881
REMARK  354  A    between atoms: _886  and  _888
REMARK  355  A    between atoms: _888  and  _889
REMARK  356  A    between atoms: _888  and  _891
REMARK  357  A    between atoms: _891  and  _892
REMARK  358  A    between atoms: _895  and  _897
REMARK  359  A    between atoms: _897  and  _898
REMARK  360  A    between atoms: _897  and  _900
REMARK  361  A    between atoms: _900  and  _901
REMARK  362  A    between atoms: _903  and  _905
REMARK  363  A    between atoms: _905  and  _906
REMARK  364  A    between atoms: _905  and  _908
REMARK  365  A    between atoms: _908  and  _909
REMARK  366  A    between atoms: _911  and  _913
REMARK  367  A    between atoms: _913  and  _914
REMARK  368  A    between atoms: _913  and  _916
REMARK  369  A    between atoms: _916  and  _917
REMARK  370  A    between atoms: _923  and  _925
REMARK  371  A    between atoms: _925  and  _926
REMARK  372  A    between atoms: _925  and  _928
REMARK  373  A    between atoms: _928  and  _929
REMARK  374  A    between atoms: _929  and  _930
REMARK  375  A    between atoms: _930  and  _931
REMARK  376  A    between atoms: _940  and  _942
REMARK  377  A    between atoms: _942  and  _943
REMARK  378  A    between atoms: _942  and  _945
REMARK  379  A    between atoms: _945  and  _946
REMARK  380  A    between atoms: _946  and  _947
REMARK  381  A    between atoms: _947  and  _948
REMARK  382  A    between atoms: _957  and  _959
REMARK  383  A    between atoms: _959  and  _960
REMARK  384  A    between atoms: _962  and  _964
REMARK  385  A    between atoms: _964  and  _965
REMARK  386  A    between atoms: _964  and  _967
REMARK  387  A    between atoms: _967  and  _968
REMARK  388  A    between atoms: _974  and  _975
REMARK  389  A    between atoms: _980  and  _982
REMARK  390  A    between atoms: _982  and  _983
REMARK  391  A    between atoms: _982  and  _985
REMARK  392  A    between atoms: _985  and  _986
REMARK  393  A    between atoms: _996  and  _998
REMARK  394  A    between atoms: _998  and  _999
REMARK  395  A    between atoms: _998  and  _1001
REMARK  396  A    between atoms: _1001  and  _1002
REMARK  397  A    between atoms: _1002  and  _1003
REMARK  398  A    between atoms: _1003  and  _1004
REMARK  399  A    between atoms: _1013  and  _1015
REMARK  400  A    between atoms: _1015  and  _1016
REMARK  401  A    between atoms: _1015  and  _1018
REMARK  402  A    between atoms: _1018  and  _1019
REMARK  403  A    between atoms: _1021  and  _1023
REMARK  404  A    between atoms: _1023  and  _1024
REMARK  405  A    between atoms: _1027  and  _1029
REMARK  406  A    between atoms: _1029  and  _1030
REMARK  407  A    between atoms: _1029  and  _1032
REMARK  408  A    between atoms: _1032  and  _1033
REMARK  409  A    between atoms: _1036  and  _1038
REMARK  410  A    between atoms: _1038  and  _1039
REMARK  411  A    between atoms: _1038  and  _1041
REMARK  412  A    between atoms: _1041  and  _1042
REMARK  413  A    between atoms: _1042  and  _1043
REMARK  414  A    between atoms: _1043  and  _1044
REMARK  415  A    between atoms: _1053  and  _1055
REMARK  416  A    between atoms: _1055  and  _1056
REMARK  417  A    between atoms: _1055  and  _1058
REMARK  418  A    between atoms: _1061  and  _1063
REMARK  419  A    between atoms: _1063  and  _1064
REMARK  420  A    between atoms: _1066  and  _1068
REMARK  421  A    between atoms: _1068  and  _1069
REMARK  422  A    between atoms: _1068  and  _1071
REMARK  423  A    between atoms: _1071  and  _1072
REMARK                            x       y       z     vdW  Elec       q    Type
REMARK                         _______ _______ _______ _____ _____    ______ ____
ROOT
ATOM      1  O   HOH     1      24.346  38.844  55.928  0.00  0.00    +0.000 OA
ENDROOT
TORSDOF 0
REMARK  Name = ../refined-set-2016/1fo0/1fo0_pocket.pdb
REMARK  423 active torsions:
REMARK  status: ('A' for Active; 'I' for Inactive)
REMARK    1  A    between atoms: _1  and  _3
REMARK    2  A    between atoms: _3  and  _4
REMARK    3  A    between atoms: _3  and  _6
REMARK    4  A    between atoms: _6  and  _7
REMARK    5  A    between atoms: _10  and  _12
REMARK    6  A    between atoms: _12  and  _13
REMARK    7  A    between atoms: _12  and  _15
REMARK    8  A    between atoms: _15  and  _16
REMARK    9  A    between atoms: _16  and  _17
REMARK   10  A    between atoms: _17  and  _18
REMARK   11  A    between atoms: _27  and  _29
REMARK   12  A    between atoms: _29  and  _30
REMARK   13  A    between atoms: _29  and  _32
REMARK   14  A    between atoms: _32  and  _33
REMARK   15  A    between atoms: _38  and  _39
REMARK   16  A    between atoms: _41  and  _43
REMARK   17  A    between atoms: _43  and  _44
REMARK   18  A    between atoms: _43  and  _46
REMARK   19  A    between atoms: _46  and  _47
REMARK   20  A    between atoms: _53  and  _55
REMARK   21  A    between atoms: _55  and  _56
REMARK   22  A    between atoms: _55  and  _58
REMARK   23  A    between atoms: _61  and  _63
REMARK   24  A    between atoms: _63  and  _64
REMARK   25  A    between atoms: _63  and  _66
REMARK   26  A    between atoms: _66  and  _67
REMARK   27  A    between atoms: _70  and  _72
REMARK   28  A    between atoms: _72  and  _73
REMARK   29  A    between atoms: _72  and  _75
REMARK   30  A    between atoms: _75  and  _76
REMARK   31  A    between atoms: _81  and  _82
REMARK   32  A    between atoms: _84  and  _86
REMARK   33  A    between atoms: _86  and  _87
REMARK   34  A    between atoms: _86  and  _89
REMARK   35  A    between atoms: _89  and  _90
REMARK   36  A    between atoms: _90  and  _91
REMARK   37  A    between atoms: _93  and  _95
REMARK   38  A    between atoms: _95  and  _96
REMARK   39  A    between atoms: _95  and  _98
REMARK   40  A    between atoms: _98  and  _99
REMARK   41  A    between atoms: _99  and  _100
REMARK   42  A    between atoms: _103  and  _105
REMARK   43  A    between atoms: _105  and  _106
REMARK   44  A    between atoms: _105  and  _108
REMARK   45  A    between atoms: _111  and  _113
REMARK   46  A    between atoms: _113  and  _114
REMARK   47  A    between atoms: _116  and  _118
REMARK   48  A    between atoms: _118  and  _119
REMARK   49  A    between atoms: _118  and  _121
REMARK   50  A    between atoms: _121  and  _122
REMARK   51  A    between atoms: _128  and  _130
REMARK   52  A    between atoms: _130  and  _131
REMARK   53  A    between atoms: _130  and  _133
REMARK   54  A    between atoms: _136  and  _138
REMARK   55  A    between atoms: _138  and  _139
REMARK   56  A    between atoms: _138  and  _141
REMARK   57  A    between atoms: _141  and  _142
REMARK   58  A    between atoms: _148  and  _150
REMARK   59  A    between atoms: _150  and  _151
REMARK   60  A    between atoms: _150  and  _153
REMARK   61  A    between atoms: _153  and  _154
REMARK   62  A    between atoms: _159  and  _160
REMARK   63  A    between atoms: _162  and  _164
REMARK   64  A    between atoms: _164  and  _165
REMARK   65  A    between atoms: _164  and  _167
REMARK   66  A    between atoms: _167  and  _168
REMARK   67  A    between atoms: _168  and  _169
REMARK   68  A    between atoms: _171  and  _173
REMARK   69  A    between atoms: _173  and  _174
REMARK   70  A    between atoms: _173  and  _176
REMARK   71  A    between atoms: _176  and  _177
REMARK   72  A    between atoms: _177  and  _178
REMARK   73  A    between atoms: _181  and  _183
REMARK   74  A    between atoms: _183  and  _184
REMARK   75  A    between atoms: _183  and  _186
REMARK   76  A    between atoms: _186  and  _187
REMARK   77  A    between atoms: _192  and  _193
REMARK   78  A    between atoms: _195  and  _197
REMARK   79  A    between atoms: _197  and  _198
REMARK   80  A    between atoms: _197  and  _200
REMARK   81  A    between atoms: _200  and  _201
REMARK   82  A    between atoms: _201  and  _202
REMARK   83  A    between atoms: _202  and  _203
REMARK   84  A    between atoms: _212  and  _214
REMARK   85  A    between atoms: _214  and  _215
REMARK   86  A    between atoms: _214  and  _217
REMARK   87  A    between atoms: _217  and  _218
REMARK   88  A    between atoms: _218  and  _219
REMARK   89  A    between atoms: _222  and  _224
REMARK   90  A    between atoms: _224  and  _225
REMARK   91  A    between atoms: _224  and  _227
REMARK   92  A    between atoms: _227  and  _228
REMARK   93  A    between atoms: _228  and  _229
REMARK   94  A    between atoms: _234  and  _236
REMARK   95  A    between atoms: _236  and  _237
REMARK   96  A    between atoms: _236  and  _239
REMARK   97  A    between atoms: _239  and  _240
REMARK   98  A    between atoms: _240  and  _241
REMARK   99  A    between atoms: _241  and  _242
REMARK  100  A    between atoms: _242  and  _243
REMARK  101  A    between atoms: _247  and  _249
REMARK  102  A    between atoms: _249  and  _250
REMARK  103  A    between atoms: _253  and  _255
REMARK  104  A    between atoms: _255  and  _256
REMARK  105  A    between atoms: _255  and  _258
REMARK  106  A    between atoms: _258  and  _259
REMARK  107  A    between atoms: _259  and  _260
REMARK  108  A    between atoms: _260  and  _261
REMARK  109  A    between atoms: _261  and  _262
REMARK  110  A    between atoms: _266  and  _268
REMARK  111  A    between atoms: _268  and  _269
REMARK  112  A    between atoms: _271  and  _273
REMARK  113  A    between atoms: _273  and  _274
REMARK  114  A    between atoms: _273  and  _276
REMARK  115  A    between atoms: _276  and  _277
REMARK  116  A    between atoms: _282  and  _284
REMARK  117  A    between atoms: _284  and  _285
REMARK  118  A    between atoms: _284  and  _287
REMARK  119  A    between atoms: _287  and  _288
REMARK  120  A    between atoms: _288  and  _289
REMARK  121  A    between atoms: _292  and  _294
REMARK  122  A    between atoms: _294  and  _295
REMARK  123  A    between atoms: _294  and  _297
REMARK  124  A    between atoms: _297  and  _298
REMARK  125  A    between atoms: _298  and  _299
REMARK  126  A    between atoms: _304  and  _306
REMARK  127  A    between atoms: _306  and  _307
REMARK  128  A    between atoms: _306  and  _309
REMARK  129  A    between atoms: _309  and  _310
REMARK  130  A    between atoms: _312  and  _314
REMARK  131  A    between atoms: _314  and  _315
REMARK  132  A    between atoms: _314  and  _317
REMARK  133  A    between atoms: _317  and  _318
REMARK  134  A    between atoms: _324  and  _326
REMARK  135  A    between atoms: _326  and  _327
REMARK  136  A    between atoms: _326  and  _329
REMARK  137  A    between atoms: _329  and  _330
REMARK  138  A    between atoms: _330  and  _331
REMARK  139  A    between atoms: _331  and  _332
REMARK  140  A    between atoms: _341  and  _343
REMARK  141  A    between atoms: _343  and  _344
REMARK  142  A    between atoms: _343  and  _346
REMARK  143  A    between atoms: _349  and  _351
REMARK  144  A    between atoms: _351  and  _352
REMARK  145  A    between atoms: _351  and  _354
REMARK  146  A    between atoms: _354  and  _355
REMARK  147  A    between atoms: _358  and  _360
REMARK  148  A    between atoms: _360  and  _361
REMARK  149  A    between atoms: _360  and  _363
REMARK  150  A    between atoms: _363  and  _364
REMARK  151  A    between atoms: _367  and  _369
REMARK  152  A    between atoms: _369  and  _370
REMARK  153  A    between atoms: _369  and  _372
REMARK  154  A    between atoms: _372  and  _373
REMARK  155  A    between atoms: _373  and  _374
REMARK  156  A    between atoms: _374  and  _375
REMARK  157  A    between atoms: _384  and  _386
REMARK  158  A    between atoms: _386  and  _387
REMARK  159  A    between atoms: _386  and  _389
REMARK  160  A    between atoms: _389  and  _390
REMARK  161  A    between atoms: _393  and  _395
REMARK  162  A    between atoms: _395  and  _396
REMARK  163  A    between atoms: _395  and  _398
REMARK  164  A    between atoms: _398  and  _399
REMARK  165  A    between atoms: _402  and  _404
REMARK  166  A    between atoms: _404  and  _405
REMARK  167  A    between atoms: _404  and  _407
REMARK  168  A    between atoms: _407  and  _408
REMARK  169  A    between atoms: _411  and  _413
REMARK  170  A    between atoms: _413  and  _414
REMARK  171  A    between atoms: _413  and  _416
REMARK  172  A    between atoms: _416  and  _417
REMARK  173  A    between atoms: _422  and  _423
REMARK  174  A    between atoms: _425  and  _427
REMARK  175  A    between atoms: _427  and  _428
REMARK  176  A    between atoms: _427  and  _430
REMARK  177  A    between atoms: _430  and  _431
REMARK  178  A    between atoms: _436  and  _437
REMARK  179  A    between atoms: _439  and  _441
REMARK  180  A    between atoms: _441  and  _442
REMARK  181  A    between atoms: _441  and  _444
REMARK  182  A    between atoms: _444  and  _445
REMARK  183  A    between atoms: _448  and  _450
REMARK  184  A    between atoms: _450  and  _451
REMARK  185  A    between atoms: _450  and  _453
REMARK  186  A    between atoms: _456  and  _458
REMARK  187  A    between atoms: _458  and  _459
REMARK  188  A    between atoms: _458  and  _461
REMARK  189  A    between atoms: _461  and  _462
REMARK  190  A    between atoms: _465  and  _467
REMARK  191  A    between atoms: _467  and  _468
REMARK  192  A    between atoms: _467  and  _470
REMARK  193  A    between atoms: _470  and  _471
REMARK  194  A    between atoms: _473  and  _475
REMARK  195  A    between atoms: _475  and  _476
REMARK  196  A    between atoms: _478  and  _480
REMARK  197  A    between atoms: _480  and  _481
REMARK  198  A    between atoms: _480  and  _483
REMARK  199  A    between atoms: _483  and  _484
REMARK  200  A    between atoms: _489  and  _490
REMARK  201  A    between atoms: _492  and  _494
REMARK  202  A    between atoms: _494  and  _495
REMARK  203  A    between atoms: _494  and  _497
REMARK  204  A    between atoms: _497  and  _498
REMARK  205  A    between atoms: _498  and  _499
REMARK  206  A    between atoms: _504  and  _506
REMARK  207  A    between atoms: _506  and  _507
REMARK  208  A    between atoms: _506  and  _509
REMARK  209  A    between atoms: _509  and  _510
REMARK  210  A    between atoms: _510  and  _511
REMARK  211  A    between atoms: _516  and  _518
REMARK  212  A    between atoms: _518  and  _519
REMARK  213  A    between atoms: _518  and  _521
REMARK  214  A    between atoms: _521  and  _522
REMARK  215  A    between atoms: _527  and  _528
REMARK  216  A    between atoms: _530  and  _532
REMARK  217  A    between atoms: _532  and  _533
REMARK  218  A    between atoms: _532  and  _535
REMARK  219  A    between atoms: _535  and  _536
REMARK  220  A    between atoms: _541  and  _542
REMARK  221  A    between atoms: _544  and  _546
REMARK  222  A    between atoms: _546  and  _547
REMARK  223  A    between atoms: _546  and  _549
REMARK  224  A    between atoms: _549  and  _550
REMARK  225  A    between atoms: _555  and  _556
REMARK  226  A    between atoms: _558  and  _560
REMARK  227  A    between atoms: _560  and  _561
REMARK  228  A    between atoms: _560  and  _563
REMARK  229  A    between atoms: _563  and  _564
REMARK  230  A    between atoms: _567  and  _569
REMARK  231  A    between atoms: _569  and  _570
REMARK  232  A    between atoms: _569  and  _572
REMARK  233  A    between atoms: _572  and  _573
REMARK  234  A    between atoms: _583  and  _585
REMARK  235  A    between atoms: _585  and  _586
REMARK  236  A    between atoms: _589  and  _591
REMARK  237  A    between atoms: _591  and  _592
REMARK  238  A    between atoms: _595  and  _597
REMARK  239  A    between atoms: _597  and  _598
REMARK  240  A    between atoms: _597  and  _600
REMARK  241  A    between atoms: _600  and  _601
REMARK  242  A    between atoms: _604  and  _606
REMARK  243  A    between atoms: _606  and  _607
REMARK  244  A    between atoms: _606  and  _609
REMARK  245  A    between atoms: _609  and  _610
REMARK  246  A    between atoms: _613  and  _615
REMARK  247  A    between atoms: _615  and  _616
REMARK  248  A    between atoms: _615  and  _618
REMARK  249  A    between atoms: _618  and  _619
REMARK  250  A    between atoms: _622  and  _624
REMARK  251  A    between atoms: _624  and  _625
REMARK  252  A    between atoms: _624  and  _627
REMARK  253  A    between atoms: _627  and  _628
REMARK  254  A    between atoms: _628  and  _629
REMARK  255  A    between atoms: _629  and  _630
REMARK  256  A    between atoms: _630  and  _631
REMARK  257  A    between atoms: _635  and  _637
REMARK  258  A    between atoms: _637  and  _638
REMARK  259  A    between atoms: _637  and  _640
REMARK  260  A    between atoms: _640  and  _641
REMARK  261  A    between atoms: _646  and  _648
REMARK  262  A    between atoms: _648  and  _649
REMARK  263  A    between atoms: _648  and  _651
REMARK  264  A    between atoms: _651  and  _652
REMARK  265  A    between atoms: _652  and  _653
REMARK  266  A    between atoms: _653  and  _654
REMARK  267  A    between atoms: _654  and  _655
REMARK  268  A    between atoms: _659  and  _661
REMARK  269  A    between atoms: _661  and  _662
REMARK  270  A    between atoms: _661  and  _664
REMARK  271  A    between atoms: _664  and  _665
REMARK  272  A    between atoms: _675  and  _677
REMARK  273  A    between atoms: _677  and  _678
REMARK  274  A    between atoms: _681  and  _683
REMARK  275  A    between atoms: _683  and  _684
REMARK  276  A    between atoms: _686  and  _688
REMARK  277  A    between atoms: _688  and  _689
REMARK  278  A    between atoms: _688  and  _691
REMARK  279  A    between atoms: _691  and  _692
REMARK  280  A    between atoms: _692  and  _693
REMARK  281  A    between atoms: _696  and  _698
REMARK  282  A    between atoms: _698  and  _699
REMARK  283  A    between atoms: _702  and  _704
REMARK  284  A    between atoms: _704  and  _705
REMARK  285  A    between atoms: _704  and  _707
REMARK  286  A    between atoms: _707  and  _708
REMARK  287  A    between atoms: _708  and  _709
REMARK  288  A    between atoms: _712  and  _714
REMARK  289  A    between atoms: _714  and  _715
REMARK  290  A    between atoms: _714  and  _717
REMARK  291  A    between atoms: _717  and  _718
REMARK  292  A    between atoms: _718  and  _719
REMARK  293  A    between atoms: _719  and  _720
REMARK  294  A    between atoms: _729  and  _731
REMARK  295  A    between atoms: _731  and  _732
REMARK  296  A    between atoms: _731  and  _734
REMARK  297  A    between atoms: _734  and  _735
REMARK  298  A    between atoms: _738  and  _740
REMARK  299  A    between atoms: _740  and  _741
REMARK  300  A    between atoms: _740  and  _743
REMARK  301  A    between atoms: _743  and  _744
REMARK  302  A    between atoms: _744  and  _745
REMARK  303  A    between atoms: _745  and  _746
REMARK  304  A    between atoms: _755  and  _757
REMARK  305  A    between atoms: _757  and  _758
REMARK  306  A    between atoms: _761  and  _763
REMARK  307  A    between atoms: _763  and  _764
REMARK  308  A    between atoms: _763  and  _766
REMARK  309  A    between atoms: _766  and  _767
REMARK  310  A    between atoms: _772  and  _773
REMARK  311  A    between atoms: _775  and  _777
REMARK  312  A    between atoms: _777  and  _778
REMARK  313  A    between atoms: _777  and  _780
REMARK  314  A    between atoms: _780  and  _781
REMARK  315  A    between atoms: _784  and  _786
REMARK  316  A    between atoms: _786  and  _787
REMARK  317  A    between atoms: _786  and  _789
REMARK  318  A    between atoms: _789  and  _790
REMARK  319  A    between atoms: _793  and  _795
REMARK  320  A    between atoms: _795  and  _796
REMARK  321  A    between atoms: _795  and  _798
REMARK  322  A    between atoms: _800  and  _802
REMARK  323  A    between atoms: _802  and  _803
REMARK  324  A    between atoms: _802  and  _805
REMARK  325  A    between atoms: _808  and  _810
REMARK  326  A    between atoms: _810  and  _811
REMARK  327  A    between atoms: _810  and  _813
REMARK  328  A    between atoms: _813  and  _814
REMARK  329  A    between atoms: _814  and  _815
REMARK  330  A    between atoms: _818  and  _820
REMARK  331  A    between atoms: _820  and  _821
REMARK  332  A    between atoms: _820  and  _823
REMARK  333  A    between atoms: _823  and  _824
REMARK  334  A    between atoms: _834  and  _836
REMARK  335  A    between atoms: _836  and  _837
REMARK  336  A    between atoms: _836  and  _839
REMARK  337  A    between atoms: _839  and  _840
REMARK  338  A    between atoms: _843  and  _845
REMARK  339  A    between atoms: _845  and  _846
REMARK  340  A    between atoms: _845  and  _848
REMARK  341  A    between atoms: _848  and  _849
REMARK  342  A    between atoms: _849  and  _850
REMARK  343  A    between atoms: _850  and  _851
REMARK  344  A    between atoms: _860  and  _862
REMARK  345  A    between atoms: _862  and  _863
REMARK  346  A    between atoms: _862  and  _865
REMARK  347  A    between atoms: _865  and  _866
REMARK  348  A    between atoms: _871  and  _872
REMARK  349  A    between atoms: _874  and  _876
REMARK  350  A    between atoms: _876  and  _877
REMARK  351  A    between atoms: _876  and  _879
REMARK  352  A    between atoms: _879  and  _880
REMARK  353  A    between atoms: _880  and  _881
REMARK  354  A    between atoms: _886  and  _888
REMARK  355  A    between atoms: _888  and  _889
REMARK  356  A    between atoms: _888  and  _891
REMARK  357  A    between atoms: _891  and  _892
REMARK  358  A    between atoms: _895  and  _897
REMARK  359  A    between atoms: _897  and  _898
REMARK  360  A    between atoms: _897  and  _900
REMARK  361  A    between atoms: _900  and  _901
REMARK  362  A    between atoms: _903  and  _905
REMARK  363  A    between atoms: _905  and  _906
REMARK  364  A    between atoms: _905  and  _908
REMARK  365  A    between atoms: _908  and  _909
REMARK  366  A    between atoms: _911  and  _913
REMARK  367  A    between atoms: _913  and  _914
REMARK  368  A    between atoms: _913  and  _916
REMARK  369  A    between atoms: _916  and  _917
REMARK  370  A    between atoms: _923  and  _925
REMARK  371  A    between atoms: _925  and  _926
REMARK  372  A    between atoms: _925  and  _928
REMARK  373  A    between atoms: _928  and  _929
REMARK  374  A    between atoms: _929  and  _930
REMARK  375  A    between atoms: _930  and  _931
REMARK  376  A    between atoms: _940  and  _942
REMARK  377  A    between atoms: _942  and  _943
REMARK  378  A    between atoms: _942  and  _945
REMARK  379  A    between atoms: _945  and  _946
REMARK  380  A    between atoms: _946  and  _947
REMARK  381  A    between atoms: _947  and  _948
REMARK  382  A    between atoms: _957  and  _959
REMARK  383  A    between atoms: _959  and  _960
REMARK  384  A    between atoms: _962  and  _964
REMARK  385  A    between atoms: _964  and  _965
REMARK  386  A    between atoms: _964  and  _967
REMARK  387  A    between atoms: _967  and  _968
REMARK  388  A    between atoms: _974  and  _975
REMARK  389  A    between atoms: _980  and  _982
REMARK  390  A    between atoms: _982  and  _983
REMARK  391  A    between atoms: _982  and  _985
REMARK  392  A    between atoms: _985  and  _986
REMARK  393  A    between atoms: _996  and  _998
REMARK  394  A    between atoms: _998  and  _999
REMARK  395  A    between atoms: _998  and  _1001
REMARK  396  A    between atoms: _1001  and  _1002
REMARK  397  A    between atoms: _1002  and  _1003
REMARK  398  A    between atoms: _1003  and  _1004
REMARK  399  A    between atoms: _1013  and  _1015
REMARK  400  A    between atoms: _1015  and  _1016
REMARK  401  A    between atoms: _1015  and  _1018
REMARK  402  A    between atoms: _1018  and  _1019
REMARK  403  A    between atoms: _1021  and  _1023
REMARK  404  A    between atoms: _1023  and  _1024
REMARK  405  A    between atoms: _1027  and  _1029
REMARK  406  A    between atoms: _1029  and  _1030
REMARK  407  A    between atoms: _1029  and  _1032
REMARK  408  A    between atoms: _1032  and  _1033
REMARK  409  A    between atoms: _1036  and  _1038
REMARK  410  A    between atoms: _1038  and  _1039
REMARK  411  A    between atoms: _1038  and  _1041
REMARK  412  A    between atoms: _1041  and  _1042
REMARK  413  A    between atoms: _1042  and  _1043
REMARK  414  A    between atoms: _1043  and  _1044
REMARK  415  A    between atoms: _1053  and  _1055
REMARK  416  A    between atoms: _1055  and  _1056
REMARK  417  A    between atoms: _1055  and  _1058
REMARK  418  A    between atoms: _1061  and  _1063
REMARK  419  A    between atoms: _1063  and  _1064
REMARK  420  A    between atoms: _1066  and  _1068
REMARK  421  A    between atoms: _1068  and  _1069
REMARK  422  A    between atoms: _1068  and  _1071
REMARK  423  A    between atoms: _1071  and  _1072
REMARK                            x       y       z     vdW  Elec       q    Type
REMARK                         _______ _______ _______ _____ _____    ______ ____
ROOT
ATOM      1  O   HOH     1      23.316  33.665  59.439  0.00  0.00    +0.000 OA
ENDROOT
TORSDOF 0
REMARK  Name = ../refined-set-2016/1fo0/1fo0_pocket.pdb
REMARK  423 active torsions:
REMARK  status: ('A' for Active; 'I' for Inactive)
REMARK    1  A    between atoms: _1  and  _3
REMARK    2  A    between atoms: _3  and  _4
REMARK    3  A    between atoms: _3  and  _6
REMARK    4  A    between atoms: _6  and  _7
REMARK    5  A    between atoms: _10  and  _12
REMARK    6  A    between atoms: _12  and  _13
REMARK    7  A    between atoms: _12  and  _15
REMARK    8  A    between atoms: _15  and  _16
REMARK    9  A    between atoms: _16  and  _17
REMARK   10  A    between atoms: _17  and  _18
REMARK   11  A    between atoms: _27  and  _29
REMARK   12  A    between atoms: _29  and  _30
REMARK   13  A    between atoms: _29  and  _32
REMARK   14  A    between atoms: _32  and  _33
REMARK   15  A    between atoms: _38  and  _39
REMARK   16  A    between atoms: _41  and  _43
REMARK   17  A    between atoms: _43  and  _44
REMARK   18  A    between atoms: _43  and  _46
REMARK   19  A    between atoms: _46  and  _47
REMARK   20  A    between atoms: _53  and  _55
REMARK   21  A    between atoms: _55  and  _56
REMARK   22  A    between atoms: _55  and  _58
REMARK   23  A    between atoms: _61  and  _63
REMARK   24  A    between atoms: _63  and  _64
REMARK   25  A    between atoms: _63  and  _66
REMARK   26  A    between atoms: _66  and  _67
REMARK   27  A    between atoms: _70  and  _72
REMARK   28  A    between atoms: _72  and  _73
REMARK   29  A    between atoms: _72  and  _75
REMARK   30  A    between atoms: _75  and  _76
REMARK   31  A    between atoms: _81  and  _82
REMARK   32  A    between atoms: _84  and  _86
REMARK   33  A    between atoms: _86  and  _87
REMARK   34  A    between atoms: _86  and  _89
REMARK   35  A    between atoms: _89  and  _90
REMARK   36  A    between atoms: _90  and  _91
REMARK   37  A    between atoms: _93  and  _95
REMARK   38  A    between atoms: _95  and  _96
REMARK   39  A    between atoms: _95  and  _98
REMARK   40  A    between atoms: _98  and  _99
REMARK   41  A    between atoms: _99  and  _100
REMARK   42  A    between atoms: _103  and  _105
REMARK   43  A    between atoms: _105  and  _106
REMARK   44  A    between atoms: _105  and  _108
REMARK   45  A    between atoms: _111  and  _113
REMARK   46  A    between atoms: _113  and  _114
REMARK   47  A    between atoms: _116  and  _118
REMARK   48  A    between atoms: _118  and  _119
REMARK   49  A    between atoms: _118  and  _121
REMARK   50  A    between atoms: _121  and  _122
REMARK   51  A    between atoms: _128  and  _130
REMARK   52  A    between atoms: _130  and  _131
REMARK   53  A    between atoms: _130  and  _133
REMARK   54  A    between atoms: _136  and  _138
REMARK   55  A    between atoms: _138  and  _139
REMARK   56  A    between atoms: _138  and  _141
REMARK   57  A    between atoms: _141  and  _142
REMARK   58  A    between atoms: _148  and  _150
REMARK   59  A    between atoms: _150  and  _151
REMARK   60  A    between atoms: _150  and  _153
REMARK   61  A    between atoms: _153  and  _154
REMARK   62  A    between atoms: _159  and  _160
REMARK   63  A    between atoms: _162  and  _164
REMARK   64  A    between atoms: _164  and  _165
REMARK   65  A    between atoms: _164  and  _167
REMARK   66  A    between atoms: _167  and  _168
REMARK   67  A    between atoms: _168  and  _169
REMARK   68  A    between atoms: _171  and  _173
REMARK   69  A    between atoms: _173  and  _174
REMARK   70  A    between atoms: _173  and  _176
REMARK   71  A    between atoms: _176  and  _177
REMARK   72  A    between atoms: _177  and  _178
REMARK   73  A    between atoms: _181  and  _183
REMARK   74  A    between atoms: _183  and  _184
REMARK   75  A    between atoms: _183  and  _186
REMARK   76  A    between atoms: _186  and  _187
REMARK   77  A    between atoms: _192  and  _193
REMARK   78  A    between atoms: _195  and  _197
REMARK   79  A    between atoms: _197  and  _198
REMARK   80  A    between atoms: _197  and  _200
REMARK   81  A    between atoms: _200  and  _201
REMARK   82  A    between atoms: _201  and  _202
REMARK   83  A    between atoms: _202  and  _203
REMARK   84  A    between atoms: _212  and  _214
REMARK   85  A    between atoms: _214  and  _215
REMARK   86  A    between atoms: _214  and  _217
REMARK   87  A    between atoms: _217  and  _218
REMARK   88  A    between atoms: _218  and  _219
REMARK   89  A    between atoms: _222  and  _224
REMARK   90  A    between atoms: _224  and  _225
REMARK   91  A    between atoms: _224  and  _227
REMARK   92  A    between atoms: _227  and  _228
REMARK   93  A    between atoms: _228  and  _229
REMARK   94  A    between atoms: _234  and  _236
REMARK   95  A    between atoms: _236  and  _237
REMARK   96  A    between atoms: _236  and  _239
REMARK   97  A    between atoms: _239  and  _240
REMARK   98  A    between atoms: _240  and  _241
REMARK   99  A    between atoms: _241  and  _242
REMARK  100  A    between atoms: _242  and  _243
REMARK  101  A    between atoms: _247  and  _249
REMARK  102  A    between atoms: _249  and  _250
REMARK  103  A    between atoms: _253  and  _255
REMARK  104  A    between atoms: _255  and  _256
REMARK  105  A    between atoms: _255  and  _258
REMARK  106  A    between atoms: _258  and  _259
REMARK  107  A    between atoms: _259  and  _260
REMARK  108  A    between atoms: _260  and  _261
REMARK  109  A    between atoms: _261  and  _262
REMARK  110  A    between atoms: _266  and  _268
REMARK  111  A    between atoms: _268  and  _269
REMARK  112  A    between atoms: _271  and  _273
REMARK  113  A    between atoms: _273  and  _274
REMARK  114  A    between atoms: _273  and  _276
REMARK  115  A    between atoms: _276  and  _277
REMARK  116  A    between atoms: _282  and  _284
REMARK  117  A    between atoms: _284  and  _285
REMARK  118  A    between atoms: _284  and  _287
REMARK  119  A    between atoms: _287  and  _288
REMARK  120  A    between atoms: _288  and  _289
REMARK  121  A    between atoms: _292  and  _294
REMARK  122  A    between atoms: _294  and  _295
REMARK  123  A    between atoms: _294  and  _297
REMARK  124  A    between atoms: _297  and  _298
REMARK  125  A    between atoms: _298  and  _299
REMARK  126  A    between atoms: _304  and  _306
REMARK  127  A    between atoms: _306  and  _307
REMARK  128  A    between atoms: _306  and  _309
REMARK  129  A    between atoms: _309  and  _310
REMARK  130  A    between atoms: _312  and  _314
REMARK  131  A    between atoms: _314  and  _315
REMARK  132  A    between atoms: _314  and  _317
REMARK  133  A    between atoms: _317  and  _318
REMARK  134  A    between atoms: _324  and  _326
REMARK  135  A    between atoms: _326  and  _327
REMARK  136  A    between atoms: _326  and  _329
REMARK  137  A    between atoms: _329  and  _330
REMARK  138  A    between atoms: _330  and  _331
REMARK  139  A    between atoms: _331  and  _332
REMARK  140  A    between atoms: _341  and  _343
REMARK  141  A    between atoms: _343  and  _344
REMARK  142  A    between atoms: _343  and  _346
REMARK  143  A    between atoms: _349  and  _351
REMARK  144  A    between atoms: _351  and  _352
REMARK  145  A    between atoms: _351  and  _354
REMARK  146  A    between atoms: _354  and  _355
REMARK  147  A    between atoms: _358  and  _360
REMARK  148  A    between atoms: _360  and  _361
REMARK  149  A    between atoms: _360  and  _363
REMARK  150  A    between atoms: _363  and  _364
REMARK  151  A    between atoms: _367  and  _369
REMARK  152  A    between atoms: _369  and  _370
REMARK  153  A    between atoms: _369  and  _372
REMARK  154  A    between atoms: _372  and  _373
REMARK  155  A    between atoms: _373  and  _374
REMARK  156  A    between atoms: _374  and  _375
REMARK  157  A    between atoms: _384  and  _386
REMARK  158  A    between atoms: _386  and  _387
REMARK  159  A    between atoms: _386  and  _389
REMARK  160  A    between atoms: _389  and  _390
REMARK  161  A    between atoms: _393  and  _395
REMARK  162  A    between atoms: _395  and  _396
REMARK  163  A    between atoms: _395  and  _398
REMARK  164  A    between atoms: _398  and  _399
REMARK  165  A    between atoms: _402  and  _404
REMARK  166  A    between atoms: _404  and  _405
REMARK  167  A    between atoms: _404  and  _407
REMARK  168  A    between atoms: _407  and  _408
REMARK  169  A    between atoms: _411  and  _413
REMARK  170  A    between atoms: _413  and  _414
REMARK  171  A    between atoms: _413  and  _416
REMARK  172  A    between atoms: _416  and  _417
REMARK  173  A    between atoms: _422  and  _423
REMARK  174  A    between atoms: _425  and  _427
REMARK  175  A    between atoms: _427  and  _428
REMARK  176  A    between atoms: _427  and  _430
REMARK  177  A    between atoms: _430  and  _431
REMARK  178  A    between atoms: _436  and  _437
REMARK  179  A    between atoms: _439  and  _441
REMARK  180  A    between atoms: _441  and  _442
REMARK  181  A    between atoms: _441  and  _444
REMARK  182  A    between atoms: _444  and  _445
REMARK  183  A    between atoms: _448  and  _450
REMARK  184  A    between atoms: _450  and  _451
REMARK  185  A    between atoms: _450  and  _453
REMARK  186  A    between atoms: _456  and  _458
REMARK  187  A    between atoms: _458  and  _459
REMARK  188  A    between atoms: _458  and  _461
REMARK  189  A    between atoms: _461  and  _462
REMARK  190  A    between atoms: _465  and  _467
REMARK  191  A    between atoms: _467  and  _468
REMARK  192  A    between atoms: _467  and  _470
REMARK  193  A    between atoms: _470  and  _471
REMARK  194  A    between atoms: _473  and  _475
REMARK  195  A    between atoms: _475  and  _476
REMARK  196  A    between atoms: _478  and  _480
REMARK  197  A    between atoms: _480  and  _481
REMARK  198  A    between atoms: _480  and  _483
REMARK  199  A    between atoms: _483  and  _484
REMARK  200  A    between atoms: _489  and  _490
REMARK  201  A    between atoms: _492  and  _494
REMARK  202  A    between atoms: _494  and  _495
REMARK  203  A    between atoms: _494  and  _497
REMARK  204  A    between atoms: _497  and  _498
REMARK  205  A    between atoms: _498  and  _499
REMARK  206  A    between atoms: _504  and  _506
REMARK  207  A    between atoms: _506  and  _507
REMARK  208  A    between atoms: _506  and  _509
REMARK  209  A    between atoms: _509  and  _510
REMARK  210  A    between atoms: _510  and  _511
REMARK  211  A    between atoms: _516  and  _518
REMARK  212  A    between atoms: _518  and  _519
REMARK  213  A    between atoms: _518  and  _521
REMARK  214  A    between atoms: _521  and  _522
REMARK  215  A    between atoms: _527  and  _528
REMARK  216  A    between atoms: _530  and  _532
REMARK  217  A    between atoms: _532  and  _533
REMARK  218  A    between atoms: _532  and  _535
REMARK  219  A    between atoms: _535  and  _536
REMARK  220  A    between atoms: _541  and  _542
REMARK  221  A    between atoms: _544  and  _546
REMARK  222  A    between atoms: _546  and  _547
REMARK  223  A    between atoms: _546  and  _549
REMARK  224  A    between atoms: _549  and  _550
REMARK  225  A    between atoms: _555  and  _556
REMARK  226  A    between atoms: _558  and  _560
REMARK  227  A    between atoms: _560  and  _561
REMARK  228  A    between atoms: _560  and  _563
REMARK  229  A    between atoms: _563  and  _564
REMARK  230  A    between atoms: _567  and  _569
REMARK  231  A    between atoms: _569  and  _570
REMARK  232  A    between atoms: _569  and  _572
REMARK  233  A    between atoms: _572  and  _573
REMARK  234  A    between atoms: _583  and  _585
REMARK  235  A    between atoms: _585  and  _586
REMARK  236  A    between atoms: _589  and  _591
REMARK  237  A    between atoms: _591  and  _592
REMARK  238  A    between atoms: _595  and  _597
REMARK  239  A    between atoms: _597  and  _598
REMARK  240  A    between atoms: _597  and  _600
REMARK  241  A    between atoms: _600  and  _601
REMARK  242  A    between atoms: _604  and  _606
REMARK  243  A    between atoms: _606  and  _607
REMARK  244  A    between atoms: _606  and  _609
REMARK  245  A    between atoms: _609  and  _610
REMARK  246  A    between atoms: _613  and  _615
REMARK  247  A    between atoms: _615  and  _616
REMARK  248  A    between atoms: _615  and  _618
REMARK  249  A    between atoms: _618  and  _619
REMARK  250  A    between atoms: _622  and  _624
REMARK  251  A    between atoms: _624  and  _625
REMARK  252  A    between atoms: _624  and  _627
REMARK  253  A    between atoms: _627  and  _628
REMARK  254  A    between atoms: _628  and  _629
REMARK  255  A    between atoms: _629  and  _630
REMARK  256  A    between atoms: _630  and  _631
REMARK  257  A    between atoms: _635  and  _637
REMARK  258  A    between atoms: _637  and  _638
REMARK  259  A    between atoms: _637  and  _640
REMARK  260  A    between atoms: _640  and  _641
REMARK  261  A    between atoms: _646  and  _648
REMARK  262  A    between atoms: _648  and  _649
REMARK  263  A    between atoms: _648  and  _651
REMARK  264  A    between atoms: _651  and  _652
REMARK  265  A    between atoms: _652  and  _653
REMARK  266  A    between atoms: _653  and  _654
REMARK  267  A    between atoms: _654  and  _655
REMARK  268  A    between atoms: _659  and  _661
REMARK  269  A    between atoms: _661  and  _662
REMARK  270  A    between atoms: _661  and  _664
REMARK  271  A    between atoms: _664  and  _665
REMARK  272  A    between atoms: _675  and  _677
REMARK  273  A    between atoms: _677  and  _678
REMARK  274  A    between atoms: _681  and  _683
REMARK  275  A    between atoms: _683  and  _684
REMARK  276  A    between atoms: _686  and  _688
REMARK  277  A    between atoms: _688  and  _689
REMARK  278  A    between atoms: _688  and  _691
REMARK  279  A    between atoms: _691  and  _692
REMARK  280  A    between atoms: _692  and  _693
REMARK  281  A    between atoms: _696  and  _698
REMARK  282  A    between atoms: _698  and  _699
REMARK  283  A    between atoms: _702  and  _704
REMARK  284  A    between atoms: _704  and  _705
REMARK  285  A    between atoms: _704  and  _707
REMARK  286  A    between atoms: _707  and  _708
REMARK  287  A    between atoms: _708  and  _709
REMARK  288  A    between atoms: _712  and  _714
REMARK  289  A    between atoms: _714  and  _715
REMARK  290  A    between atoms: _714  and  _717
REMARK  291  A    between atoms: _717  and  _718
REMARK  292  A    between atoms: _718  and  _719
REMARK  293  A    between atoms: _719  and  _720
REMARK  294  A    between atoms: _729  and  _731
REMARK  295  A    between atoms: _731  and  _732
REMARK  296  A    between atoms: _731  and  _734
REMARK  297  A    between atoms: _734  and  _735
REMARK  298  A    between atoms: _738  and  _740
REMARK  299  A    between atoms: _740  and  _741
REMARK  300  A    between atoms: _740  and  _743
REMARK  301  A    between atoms: _743  and  _744
REMARK  302  A    between atoms: _744  and  _745
REMARK  303  A    between atoms: _745  and  _746
REMARK  304  A    between atoms: _755  and  _757
REMARK  305  A    between atoms: _757  and  _758
REMARK  306  A    between atoms: _761  and  _763
REMARK  307  A    between atoms: _763  and  _764
REMARK  308  A    between atoms: _763  and  _766
REMARK  309  A    between atoms: _766  and  _767
REMARK  310  A    between atoms: _772  and  _773
REMARK  311  A    between atoms: _775  and  _777
REMARK  312  A    between atoms: _777  and  _778
REMARK  313  A    between atoms: _777  and  _780
REMARK  314  A    between atoms: _780  and  _781
REMARK  315  A    between atoms: _784  and  _786
REMARK  316  A    between atoms: _786  and  _787
REMARK  317  A    between atoms: _786  and  _789
REMARK  318  A    between atoms: _789  and  _790
REMARK  319  A    between atoms: _793  and  _795
REMARK  320  A    between atoms: _795  and  _796
REMARK  321  A    between atoms: _795  and  _798
REMARK  322  A    between atoms: _800  and  _802
REMARK  323  A    between atoms: _802  and  _803
REMARK  324  A    between atoms: _802  and  _805
REMARK  325  A    between atoms: _808  and  _810
REMARK  326  A    between atoms: _810  and  _811
REMARK  327  A    between atoms: _810  and  _813
REMARK  328  A    between atoms: _813  and  _814
REMARK  329  A    between atoms: _814  and  _815
REMARK  330  A    between atoms: _818  and  _820
REMARK  331  A    between atoms: _820  and  _821
REMARK  332  A    between atoms: _820  and  _823
REMARK  333  A    between atoms: _823  and  _824
REMARK  334  A    between atoms: _834  and  _836
REMARK  335  A    between atoms: _836  and  _837
REMARK  336  A    between atoms: _836  and  _839
REMARK  337  A    between atoms: _839  and  _840
REMARK  338  A    between atoms: _843  and  _845
REMARK  339  A    between atoms: _845  and  _846
REMARK  340  A    between atoms: _845  and  _848
REMARK  341  A    between atoms: _848  and  _849
REMARK  342  A    between atoms: _849  and  _850
REMARK  343  A    between atoms: _850  and  _851
REMARK  344  A    between atoms: _860  and  _862
REMARK  345  A    between atoms: _862  and  _863
REMARK  346  A    between atoms: _862  and  _865
REMARK  347  A    between atoms: _865  and  _866
REMARK  348  A    between atoms: _871  and  _872
REMARK  349  A    between atoms: _874  and  _876
REMARK  350  A    between atoms: _876  and  _877
REMARK  351  A    between atoms: _876  and  _879
REMARK  352  A    between atoms: _879  and  _880
REMARK  353  A    between atoms: _880  and  _881
REMARK  354  A    between atoms: _886  and  _888
REMARK  355  A    between atoms: _888  and  _889
REMARK  356  A    between atoms: _888  and  _891
REMARK  357  A    between atoms: _891  and  _892
REMARK  358  A    between atoms: _895  and  _897
REMARK  359  A    between atoms: _897  and  _898
REMARK  360  A    between atoms: _897  and  _900
REMARK  361  A    between atoms: _900  and  _901
REMARK  362  A    between atoms: _903  and  _905
REMARK  363  A    between atoms: _905  and  _906
REMARK  364  A    between atoms: _905  and  _908
REMARK  365  A    between atoms: _908  and  _909
REMARK  366  A    between atoms: _911  and  _913
REMARK  367  A    between atoms: _913  and  _914
REMARK  368  A    between atoms: _913  and  _916
REMARK  369  A    between atoms: _916  and  _917
REMARK  370  A    between atoms: _923  and  _925
REMARK  371  A    between atoms: _925  and  _926
REMARK  372  A    between atoms: _925  and  _928
REMARK  373  A    between atoms: _928  and  _929
REMARK  374  A    between atoms: _929  and  _930
REMARK  375  A    between atoms: _930  and  _931
REMARK  376  A    between atoms: _940  and  _942
REMARK  377  A    between atoms: _942  and  _943
REMARK  378  A    between atoms: _942  and  _945
REMARK  379  A    between atoms: _945  and  _946
REMARK  380  A    between atoms: _946  and  _947
REMARK  381  A    between atoms: _947  and  _948
REMARK  382  A    between atoms: _957  and  _959
REMARK  383  A    between atoms: _959  and  _960
REMARK  384  A    between atoms: _962  and  _964
REMARK  385  A    between atoms: _964  and  _965
REMARK  386  A    between atoms: _964  and  _967
REMARK  387  A    between atoms: _967  and  _968
REMARK  388  A    between atoms: _974  and  _975
REMARK  389  A    between atoms: _980  and  _982
REMARK  390  A    between atoms: _982  and  _983
REMARK  391  A    between atoms: _982  and  _985
REMARK  392  A    between atoms: _985  and  _986
REMARK  393  A    between atoms: _996  and  _998
REMARK  394  A    between atoms: _998  and  _999
REMARK  395  A    between atoms: _998  and  _1001
REMARK  396  A    between atoms: _1001  and  _1002
REMARK  397  A    between atoms: _1002  and  _1003
REMARK  398  A    between atoms: _1003  and  _1004
REMARK  399  A    between atoms: _1013  and  _1015
REMARK  400  A    between atoms: _1015  and  _1016
REMARK  401  A    between atoms: _1015  and  _1018
REMARK  402  A    between atoms: _1018  and  _1019
REMARK  403  A    between atoms: _1021  and  _1023
REMARK  404  A    between atoms: _1023  and  _1024
REMARK  405  A    between atoms: _1027  and  _1029
REMARK  406  A    between atoms: _1029  and  _1030
REMARK  407  A    between atoms: _1029  and  _1032
REMARK  408  A    between atoms: _1032  and  _1033
REMARK  409  A    between atoms: _1036  and  _1038
REMARK  410  A    between atoms: _1038  and  _1039
REMARK  411  A    between atoms: _1038  and  _1041
REMARK  412  A    between atoms: _1041  and  _1042
REMARK  413  A    between atoms: _1042  and  _1043
REMARK  414  A    between atoms: _1043  and  _1044
REMARK  415  A    between atoms: _1053  and  _1055
REMARK  416  A    between atoms: _1055  and  _1056
REMARK  417  A    between atoms: _1055  and  _1058
REMARK  418  A    between atoms: _1061  and  _1063
REMARK  419  A    between atoms: _1063  and  _1064
REMARK  420  A    between atoms: _1066  and  _1068
REMARK  421  A    between atoms: _1068  and  _1069
REMARK  422  A    between atoms: _1068  and  _1071
REMARK  423  A    between atoms: _1071  and  _1072
REMARK                            x       y       z     vdW  Elec       q    Type
REMARK                         _______ _______ _______ _____ _____    ______ ____
ROOT
ATOM      1  O   HOH     1      27.767  34.163  55.754  0.00  0.00    +0.000 OA
ENDROOT
TORSDOF 0
REMARK  Name = ../refined-set-2016/1fo0/1fo0_pocket.pdb
REMARK  423 active torsions:
REMARK  status: ('A' for Active; 'I' for Inactive)
REMARK    1  A    between atoms: _1  and  _3
REMARK    2  A    between atoms: _3  and  _4
REMARK    3  A    between atoms: _3  and  _6
REMARK    4  A    between atoms: _6  and  _7
REMARK    5  A    between atoms: _10  and  _12
REMARK    6  A    between atoms: _12  and  _13
REMARK    7  A    between atoms: _12  and  _15
REMARK    8  A    between atoms: _15  and  _16
REMARK    9  A    between atoms: _16  and  _17
REMARK   10  A    between atoms: _17  and  _18
REMARK   11  A    between atoms: _27  and  _29
REMARK   12  A    between atoms: _29  and  _30
REMARK   13  A    between atoms: _29  and  _32
REMARK   14  A    between atoms: _32  and  _33
REMARK   15  A    between atoms: _38  and  _39
REMARK   16  A    between atoms: _41  and  _43
REMARK   17  A    between atoms: _43  and  _44
REMARK   18  A    between atoms: _43  and  _46
REMARK   19  A    between atoms: _46  and  _47
REMARK   20  A    between atoms: _53  and  _55
REMARK   21  A    between atoms: _55  and  _56
REMARK   22  A    between atoms: _55  and  _58
REMARK   23  A    between atoms: _61  and  _63
REMARK   24  A    between atoms: _63  and  _64
REMARK   25  A    between atoms: _63  and  _66
REMARK   26  A    between atoms: _66  and  _67
REMARK   27  A    between atoms: _70  and  _72
REMARK   28  A    between atoms: _72  and  _73
REMARK   29  A    between atoms: _72  and  _75
REMARK   30  A    between atoms: _75  and  _76
REMARK   31  A    between atoms: _81  and  _82
REMARK   32  A    between atoms: _84  and  _86
REMARK   33  A    between atoms: _86  and  _87
REMARK   34  A    between atoms: _86  and  _89
REMARK   35  A    between atoms: _89  and  _90
REMARK   36  A    between atoms: _90  and  _91
REMARK   37  A    between atoms: _93  and  _95
REMARK   38  A    between atoms: _95  and  _96
REMARK   39  A    between atoms: _95  and  _98
REMARK   40  A    between atoms: _98  and  _99
REMARK   41  A    between atoms: _99  and  _100
REMARK   42  A    between atoms: _103  and  _105
REMARK   43  A    between atoms: _105  and  _106
REMARK   44  A    between atoms: _105  and  _108
REMARK   45  A    between atoms: _111  and  _113
REMARK   46  A    between atoms: _113  and  _114
REMARK   47  A    between atoms: _116  and  _118
REMARK   48  A    between atoms: _118  and  _119
REMARK   49  A    between atoms: _118  and  _121
REMARK   50  A    between atoms: _121  and  _122
REMARK   51  A    between atoms: _128  and  _130
REMARK   52  A    between atoms: _130  and  _131
REMARK   53  A    between atoms: _130  and  _133
REMARK   54  A    between atoms: _136  and  _138
REMARK   55  A    between atoms: _138  and  _139
REMARK   56  A    between atoms: _138  and  _141
REMARK   57  A    between atoms: _141  and  _142
REMARK   58  A    between atoms: _148  and  _150
REMARK   59  A    between atoms: _150  and  _151
REMARK   60  A    between atoms: _150  and  _153
REMARK   61  A    between atoms: _153  and  _154
REMARK   62  A    between atoms: _159  and  _160
REMARK   63  A    between atoms: _162  and  _164
REMARK   64  A    between atoms: _164  and  _165
REMARK   65  A    between atoms: _164  and  _167
REMARK   66  A    between atoms: _167  and  _168
REMARK   67  A    between atoms: _168  and  _169
REMARK   68  A    between atoms: _171  and  _173
REMARK   69  A    between atoms: _173  and  _174
REMARK   70  A    between atoms: _173  and  _176
REMARK   71  A    between atoms: _176  and  _177
REMARK   72  A    between atoms: _177  and  _178
REMARK   73  A    between atoms: _181  and  _183
REMARK   74  A    between atoms: _183  and  _184
REMARK   75  A    between atoms: _183  and  _186
REMARK   76  A    between atoms: _186  and  _187
REMARK   77  A    between atoms: _192  and  _193
REMARK   78  A    between atoms: _195  and  _197
REMARK   79  A    between atoms: _197  and  _198
REMARK   80  A    between atoms: _197  and  _200
REMARK   81  A    between atoms: _200  and  _201
REMARK   82  A    between atoms: _201  and  _202
REMARK   83  A    between atoms: _202  and  _203
REMARK   84  A    between atoms: _212  and  _214
REMARK   85  A    between atoms: _214  and  _215
REMARK   86  A    between atoms: _214  and  _217
REMARK   87  A    between atoms: _217  and  _218
REMARK   88  A    between atoms: _218  and  _219
REMARK   89  A    between atoms: _222  and  _224
REMARK   90  A    between atoms: _224  and  _225
REMARK   91  A    between atoms: _224  and  _227
REMARK   92  A    between atoms: _227  and  _228
REMARK   93  A    between atoms: _228  and  _229
REMARK   94  A    between atoms: _234  and  _236
REMARK   95  A    between atoms: _236  and  _237
REMARK   96  A    between atoms: _236  and  _239
REMARK   97  A    between atoms: _239  and  _240
REMARK   98  A    between atoms: _240  and  _241
REMARK   99  A    between atoms: _241  and  _242
REMARK  100  A    between atoms: _242  and  _243
REMARK  101  A    between atoms: _247  and  _249
REMARK  102  A    between atoms: _249  and  _250
REMARK  103  A    between atoms: _253  and  _255
REMARK  104  A    between atoms: _255  and  _256
REMARK  105  A    between atoms: _255  and  _258
REMARK  106  A    between atoms: _258  and  _259
REMARK  107  A    between atoms: _259  and  _260
REMARK  108  A    between atoms: _260  and  _261
REMARK  109  A    between atoms: _261  and  _262
REMARK  110  A    between atoms: _266  and  _268
REMARK  111  A    between atoms: _268  and  _269
REMARK  112  A    between atoms: _271  and  _273
REMARK  113  A    between atoms: _273  and  _274
REMARK  114  A    between atoms: _273  and  _276
REMARK  115  A    between atoms: _276  and  _277
REMARK  116  A    between atoms: _282  and  _284
REMARK  117  A    between atoms: _284  and  _285
REMARK  118  A    between atoms: _284  and  _287
REMARK  119  A    between atoms: _287  and  _288
REMARK  120  A    between atoms: _288  and  _289
REMARK  121  A    between atoms: _292  and  _294
REMARK  122  A    between atoms: _294  and  _295
REMARK  123  A    between atoms: _294  and  _297
REMARK  124  A    between atoms: _297  and  _298
REMARK  125  A    between atoms: _298  and  _299
REMARK  126  A    between atoms: _304  and  _306
REMARK  127  A    between atoms: _306  and  _307
REMARK  128  A    between atoms: _306  and  _309
REMARK  129  A    between atoms: _309  and  _310
REMARK  130  A    between atoms: _312  and  _314
REMARK  131  A    between atoms: _314  and  _315
REMARK  132  A    between atoms: _314  and  _317
REMARK  133  A    between atoms: _317  and  _318
REMARK  134  A    between atoms: _324  and  _326
REMARK  135  A    between atoms: _326  and  _327
REMARK  136  A    between atoms: _326  and  _329
REMARK  137  A    between atoms: _329  and  _330
REMARK  138  A    between atoms: _330  and  _331
REMARK  139  A    between atoms: _331  and  _332
REMARK  140  A    between atoms: _341  and  _343
REMARK  141  A    between atoms: _343  and  _344
REMARK  142  A    between atoms: _343  and  _346
REMARK  143  A    between atoms: _349  and  _351
REMARK  144  A    between atoms: _351  and  _352
REMARK  145  A    between atoms: _351  and  _354
REMARK  146  A    between atoms: _354  and  _355
REMARK  147  A    between atoms: _358  and  _360
REMARK  148  A    between atoms: _360  and  _361
REMARK  149  A    between atoms: _360  and  _363
REMARK  150  A    between atoms: _363  and  _364
REMARK  151  A    between atoms: _367  and  _369
REMARK  152  A    between atoms: _369  and  _370
REMARK  153  A    between atoms: _369  and  _372
REMARK  154  A    between atoms: _372  and  _373
REMARK  155  A    between atoms: _373  and  _374
REMARK  156  A    between atoms: _374  and  _375
REMARK  157  A    between atoms: _384  and  _386
REMARK  158  A    between atoms: _386  and  _387
REMARK  159  A    between atoms: _386  and  _389
REMARK  160  A    between atoms: _389  and  _390
REMARK  161  A    between atoms: _393  and  _395
REMARK  162  A    between atoms: _395  and  _396
REMARK  163  A    between atoms: _395  and  _398
REMARK  164  A    between atoms: _398  and  _399
REMARK  165  A    between atoms: _402  and  _404
REMARK  166  A    between atoms: _404  and  _405
REMARK  167  A    between atoms: _404  and  _407
REMARK  168  A    between atoms: _407  and  _408
REMARK  169  A    between atoms: _411  and  _413
REMARK  170  A    between atoms: _413  and  _414
REMARK  171  A    between atoms: _413  and  _416
REMARK  172  A    between atoms: _416  and  _417
REMARK  173  A    between atoms: _422  and  _423
REMARK  174  A    between atoms: _425  and  _427
REMARK  175  A    between atoms: _427  and  _428
REMARK  176  A    between atoms: _427  and  _430
REMARK  177  A    between atoms: _430  and  _431
REMARK  178  A    between atoms: _436  and  _437
REMARK  179  A    between atoms: _439  and  _441
REMARK  180  A    between atoms: _441  and  _442
REMARK  181  A    between atoms: _441  and  _444
REMARK  182  A    between atoms: _444  and  _445
REMARK  183  A    between atoms: _448  and  _450
REMARK  184  A    between atoms: _450  and  _451
REMARK  185  A    between atoms: _450  and  _453
REMARK  186  A    between atoms: _456  and  _458
REMARK  187  A    between atoms: _458  and  _459
REMARK  188  A    between atoms: _458  and  _461
REMARK  189  A    between atoms: _461  and  _462
REMARK  190  A    between atoms: _465  and  _467
REMARK  191  A    between atoms: _467  and  _468
REMARK  192  A    between atoms: _467  and  _470
REMARK  193  A    between atoms: _470  and  _471
REMARK  194  A    between atoms: _473  and  _475
REMARK  195  A    between atoms: _475  and  _476
REMARK  196  A    between atoms: _478  and  _480
REMARK  197  A    between atoms: _480  and  _481
REMARK  198  A    between atoms: _480  and  _483
REMARK  199  A    between atoms: _483  and  _484
REMARK  200  A    between atoms: _489  and  _490
REMARK  201  A    between atoms: _492  and  _494
REMARK  202  A    between atoms: _494  and  _495
REMARK  203  A    between atoms: _494  and  _497
REMARK  204  A    between atoms: _497  and  _498
REMARK  205  A    between atoms: _498  and  _499
REMARK  206  A    between atoms: _504  and  _506
REMARK  207  A    between atoms: _506  and  _507
REMARK  208  A    between atoms: _506  and  _509
REMARK  209  A    between atoms: _509  and  _510
REMARK  210  A    between atoms: _510  and  _511
REMARK  211  A    between atoms: _516  and  _518
REMARK  212  A    between atoms: _518  and  _519
REMARK  213  A    between atoms: _518  and  _521
REMARK  214  A    between atoms: _521  and  _522
REMARK  215  A    between atoms: _527  and  _528
REMARK  216  A    between atoms: _530  and  _532
REMARK  217  A    between atoms: _532  and  _533
REMARK  218  A    between atoms: _532  and  _535
REMARK  219  A    between atoms: _535  and  _536
REMARK  220  A    between atoms: _541  and  _542
REMARK  221  A    between atoms: _544  and  _546
REMARK  222  A    between atoms: _546  and  _547
REMARK  223  A    between atoms: _546  and  _549
REMARK  224  A    between atoms: _549  and  _550
REMARK  225  A    between atoms: _555  and  _556
REMARK  226  A    between atoms: _558  and  _560
REMARK  227  A    between atoms: _560  and  _561
REMARK  228  A    between atoms: _560  and  _563
REMARK  229  A    between atoms: _563  and  _564
REMARK  230  A    between atoms: _567  and  _569
REMARK  231  A    between atoms: _569  and  _570
REMARK  232  A    between atoms: _569  and  _572
REMARK  233  A    between atoms: _572  and  _573
REMARK  234  A    between atoms: _583  and  _585
REMARK  235  A    between atoms: _585  and  _586
REMARK  236  A    between atoms: _589  and  _591
REMARK  237  A    between atoms: _591  and  _592
REMARK  238  A    between atoms: _595  and  _597
REMARK  239  A    between atoms: _597  and  _598
REMARK  240  A    between atoms: _597  and  _600
REMARK  241  A    between atoms: _600  and  _601
REMARK  242  A    between atoms: _604  and  _606
REMARK  243  A    between atoms: _606  and  _607
REMARK  244  A    between atoms: _606  and  _609
REMARK  245  A    between atoms: _609  and  _610
REMARK  246  A    between atoms: _613  and  _615
REMARK  247  A    between atoms: _615  and  _616
REMARK  248  A    between atoms: _615  and  _618
REMARK  249  A    between atoms: _618  and  _619
REMARK  250  A    between atoms: _622  and  _624
REMARK  251  A    between atoms: _624  and  _625
REMARK  252  A    between atoms: _624  and  _627
REMARK  253  A    between atoms: _627  and  _628
REMARK  254  A    between atoms: _628  and  _629
REMARK  255  A    between atoms: _629  and  _630
REMARK  256  A    between atoms: _630  and  _631
REMARK  257  A    between atoms: _635  and  _637
REMARK  258  A    between atoms: _637  and  _638
REMARK  259  A    between atoms: _637  and  _640
REMARK  260  A    between atoms: _640  and  _641
REMARK  261  A    between atoms: _646  and  _648
REMARK  262  A    between atoms: _648  and  _649
REMARK  263  A    between atoms: _648  and  _651
REMARK  264  A    between atoms: _651  and  _652
REMARK  265  A    between atoms: _652  and  _653
REMARK  266  A    between atoms: _653  and  _654
REMARK  267  A    between atoms: _654  and  _655
REMARK  268  A    between atoms: _659  and  _661
REMARK  269  A    between atoms: _661  and  _662
REMARK  270  A    between atoms: _661  and  _664
REMARK  271  A    between atoms: _664  and  _665
REMARK  272  A    between atoms: _675  and  _677
REMARK  273  A    between atoms: _677  and  _678
REMARK  274  A    between atoms: _681  and  _683
REMARK  275  A    between atoms: _683  and  _684
REMARK  276  A    between atoms: _686  and  _688
REMARK  277  A    between atoms: _688  and  _689
REMARK  278  A    between atoms: _688  and  _691
REMARK  279  A    between atoms: _691  and  _692
REMARK  280  A    between atoms: _692  and  _693
REMARK  281  A    between atoms: _696  and  _698
REMARK  282  A    between atoms: _698  and  _699
REMARK  283  A    between atoms: _702  and  _704
REMARK  284  A    between atoms: _704  and  _705
REMARK  285  A    between atoms: _704  and  _707
REMARK  286  A    between atoms: _707  and  _708
REMARK  287  A    between atoms: _708  and  _709
REMARK  288  A    between atoms: _712  and  _714
REMARK  289  A    between atoms: _714  and  _715
REMARK  290  A    between atoms: _714  and  _717
REMARK  291  A    between atoms: _717  and  _718
REMARK  292  A    between atoms: _718  and  _719
REMARK  293  A    between atoms: _719  and  _720
REMARK  294  A    between atoms: _729  and  _731
REMARK  295  A    between atoms: _731  and  _732
REMARK  296  A    between atoms: _731  and  _734
REMARK  297  A    between atoms: _734  and  _735
REMARK  298  A    between atoms: _738  and  _740
REMARK  299  A    between atoms: _740  and  _741
REMARK  300  A    between atoms: _740  and  _743
REMARK  301  A    between atoms: _743  and  _744
REMARK  302  A    between atoms: _744  and  _745
REMARK  303  A    between atoms: _745  and  _746
REMARK  304  A    between atoms: _755  and  _757
REMARK  305  A    between atoms: _757  and  _758
REMARK  306  A    between atoms: _761  and  _763
REMARK  307  A    between atoms: _763  and  _764
REMARK  308  A    between atoms: _763  and  _766
REMARK  309  A    between atoms: _766  and  _767
REMARK  310  A    between atoms: _772  and  _773
REMARK  311  A    between atoms: _775  and  _777
REMARK  312  A    between atoms: _777  and  _778
REMARK  313  A    between atoms: _777  and  _780
REMARK  314  A    between atoms: _780  and  _781
REMARK  315  A    between atoms: _784  and  _786
REMARK  316  A    between atoms: _786  and  _787
REMARK  317  A    between atoms: _786  and  _789
REMARK  318  A    between atoms: _789  and  _790
REMARK  319  A    between atoms: _793  and  _795
REMARK  320  A    between atoms: _795  and  _796
REMARK  321  A    between atoms: _795  and  _798
REMARK  322  A    between atoms: _800  and  _802
REMARK  323  A    between atoms: _802  and  _803
REMARK  324  A    between atoms: _802  and  _805
REMARK  325  A    between atoms: _808  and  _810
REMARK  326  A    between atoms: _810  and  _811
REMARK  327  A    between atoms: _810  and  _813
REMARK  328  A    between atoms: _813  and  _814
REMARK  329  A    between atoms: _814  and  _815
REMARK  330  A    between atoms: _818  and  _820
REMARK  331  A    between atoms: _820  and  _821
REMARK  332  A    between atoms: _820  and  _823
REMARK  333  A    between atoms: _823  and  _824
REMARK  334  A    between atoms: _834  and  _836
REMARK  335  A    between atoms: _836  and  _837
REMARK  336  A    between atoms: _836  and  _839
REMARK  337  A    between atoms: _839  and  _840
REMARK  338  A    between atoms: _843  and  _845
REMARK  339  A    between atoms: _845  and  _846
REMARK  340  A    between atoms: _845  and  _848
REMARK  341  A    between atoms: _848  and  _849
REMARK  342  A    between atoms: _849  and  _850
REMARK  343  A    between atoms: _850  and  _851
REMARK  344  A    between atoms: _860  and  _862
REMARK  345  A    between atoms: _862  and  _863
REMARK  346  A    between atoms: _862  and  _865
REMARK  347  A    between atoms: _865  and  _866
REMARK  348  A    between atoms: _871  and  _872
REMARK  349  A    between atoms: _874  and  _876
REMARK  350  A    between atoms: _876  and  _877
REMARK  351  A    between atoms: _876  and  _879
REMARK  352  A    between atoms: _879  and  _880
REMARK  353  A    between atoms: _880  and  _881
REMARK  354  A    between atoms: _886  and  _888
REMARK  355  A    between atoms: _888  and  _889
REMARK  356  A    between atoms: _888  and  _891
REMARK  357  A    between atoms: _891  and  _892
REMARK  358  A    between atoms: _895  and  _897
REMARK  359  A    between atoms: _897  and  _898
REMARK  360  A    between atoms: _897  and  _900
REMARK  361  A    between atoms: _900  and  _901
REMARK  362  A    between atoms: _903  and  _905
REMARK  363  A    between atoms: _905  and  _906
REMARK  364  A    between atoms: _905  and  _908
REMARK  365  A    between atoms: _908  and  _909
REMARK  366  A    between atoms: _911  and  _913
REMARK  367  A    between atoms: _913  and  _914
REMARK  368  A    between atoms: _913  and  _916
REMARK  369  A    between atoms: _916  and  _917
REMARK  370  A    between atoms: _923  and  _925
REMARK  371  A    between atoms: _925  and  _926
REMARK  372  A    between atoms: _925  and  _928
REMARK  373  A    between atoms: _928  and  _929
REMARK  374  A    between atoms: _929  and  _930
REMARK  375  A    between atoms: _930  and  _931
REMARK  376  A    between atoms: _940  and  _942
REMARK  377  A    between atoms: _942  and  _943
REMARK  378  A    between atoms: _942  and  _945
REMARK  379  A    between atoms: _945  and  _946
REMARK  380  A    between atoms: _946  and  _947
REMARK  381  A    between atoms: _947  and  _948
REMARK  382  A    between atoms: _957  and  _959
REMARK  383  A    between atoms: _959  and  _960
REMARK  384  A    between atoms: _962  and  _964
REMARK  385  A    between atoms: _964  and  _965
REMARK  386  A    between atoms: _964  and  _967
REMARK  387  A    between atoms: _967  and  _968
REMARK  388  A    between atoms: _974  and  _975
REMARK  389  A    between atoms: _980  and  _982
REMARK  390  A    between atoms: _982  and  _983
REMARK  391  A    between atoms: _982  and  _985
REMARK  392  A    between atoms: _985  and  _986
REMARK  393  A    between atoms: _996  and  _998
REMARK  394  A    between atoms: _998  and  _999
REMARK  395  A    between atoms: _998  and  _1001
REMARK  396  A    between atoms: _1001  and  _1002
REMARK  397  A    between atoms: _1002  and  _1003
REMARK  398  A    between atoms: _1003  and  _1004
REMARK  399  A    between atoms: _1013  and  _1015
REMARK  400  A    between atoms: _1015  and  _1016
REMARK  401  A    between atoms: _1015  and  _1018
REMARK  402  A    between atoms: _1018  and  _1019
REMARK  403  A    between atoms: _1021  and  _1023
REMARK  404  A    between atoms: _1023  and  _1024
REMARK  405  A    between atoms: _1027  and  _1029
REMARK  406  A    between atoms: _1029  and  _1030
REMARK  407  A    between atoms: _1029  and  _1032
REMARK  408  A    between atoms: _1032  and  _1033
REMARK  409  A    between atoms: _1036  and  _1038
REMARK  410  A    between atoms: _1038  and  _1039
REMARK  411  A    between atoms: _1038  and  _1041
REMARK  412  A    between atoms: _1041  and  _1042
REMARK  413  A    between atoms: _1042  and  _1043
REMARK  414  A    between atoms: _1043  and  _1044
REMARK  415  A    between atoms: _1053  and  _1055
REMARK  416  A    between atoms: _1055  and  _1056
REMARK  417  A    between atoms: _1055  and  _1058
REMARK  418  A    between atoms: _1061  and  _1063
REMARK  419  A    between atoms: _1063  and  _1064
REMARK  420  A    between atoms: _1066  and  _1068
REMARK  421  A    between atoms: _1068  and  _1069
REMARK  422  A    between atoms: _1068  and  _1071
REMARK  423  A    between atoms: _1071  and  _1072
REMARK                            x       y       z     vdW  Elec       q    Type
REMARK                         _______ _______ _______ _____ _____    ______ ____
ROOT
ATOM      1  O   HOH     1      14.374  35.643  59.721  0.00  0.00    +0.000 OA
ENDROOT
TORSDOF 0
REMARK  Name = ../refined-set-2016/1fo0/1fo0_pocket.pdb
REMARK  423 active torsions:
REMARK  status: ('A' for Active; 'I' for Inactive)
REMARK    1  A    between atoms: _1  and  _3
REMARK    2  A    between atoms: _3  and  _4
REMARK    3  A    between atoms: _3  and  _6
REMARK    4  A    between atoms: _6  and  _7
REMARK    5  A    between atoms: _10  and  _12
REMARK    6  A    between atoms: _12  and  _13
REMARK    7  A    between atoms: _12  and  _15
REMARK    8  A    between atoms: _15  and  _16
REMARK    9  A    between atoms: _16  and  _17
REMARK   10  A    between atoms: _17  and  _18
REMARK   11  A    between atoms: _27  and  _29
REMARK   12  A    between atoms: _29  and  _30
REMARK   13  A    between atoms: _29  and  _32
REMARK   14  A    between atoms: _32  and  _33
REMARK   15  A    between atoms: _38  and  _39
REMARK   16  A    between atoms: _41  and  _43
REMARK   17  A    between atoms: _43  and  _44
REMARK   18  A    between atoms: _43  and  _46
REMARK   19  A    between atoms: _46  and  _47
REMARK   20  A    between atoms: _53  and  _55
REMARK   21  A    between atoms: _55  and  _56
REMARK   22  A    between atoms: _55  and  _58
REMARK   23  A    between atoms: _61  and  _63
REMARK   24  A    between atoms: _63  and  _64
REMARK   25  A    between atoms: _63  and  _66
REMARK   26  A    between atoms: _66  and  _67
REMARK   27  A    between atoms: _70  and  _72
REMARK   28  A    between atoms: _72  and  _73
REMARK   29  A    between atoms: _72  and  _75
REMARK   30  A    between atoms: _75  and  _76
REMARK   31  A    between atoms: _81  and  _82
REMARK   32  A    between atoms: _84  and  _86
REMARK   33  A    between atoms: _86  and  _87
REMARK   34  A    between atoms: _86  and  _89
REMARK   35  A    between atoms: _89  and  _90
REMARK   36  A    between atoms: _90  and  _91
REMARK   37  A    between atoms: _93  and  _95
REMARK   38  A    between atoms: _95  and  _96
REMARK   39  A    between atoms: _95  and  _98
REMARK   40  A    between atoms: _98  and  _99
REMARK   41  A    between atoms: _99  and  _100
REMARK   42  A    between atoms: _103  and  _105
REMARK   43  A    between atoms: _105  and  _106
REMARK   44  A    between atoms: _105  and  _108
REMARK   45  A    between atoms: _111  and  _113
REMARK   46  A    between atoms: _113  and  _114
REMARK   47  A    between atoms: _116  and  _118
REMARK   48  A    between atoms: _118  and  _119
REMARK   49  A    between atoms: _118  and  _121
REMARK   50  A    between atoms: _121  and  _122
REMARK   51  A    between atoms: _128  and  _130
REMARK   52  A    between atoms: _130  and  _131
REMARK   53  A    between atoms: _130  and  _133
REMARK   54  A    between atoms: _136  and  _138
REMARK   55  A    between atoms: _138  and  _139
REMARK   56  A    between atoms: _138  and  _141
REMARK   57  A    between atoms: _141  and  _142
REMARK   58  A    between atoms: _148  and  _150
REMARK   59  A    between atoms: _150  and  _151
REMARK   60  A    between atoms: _150  and  _153
REMARK   61  A    between atoms: _153  and  _154
REMARK   62  A    between atoms: _159  and  _160
REMARK   63  A    between atoms: _162  and  _164
REMARK   64  A    between atoms: _164  and  _165
REMARK   65  A    between atoms: _164  and  _167
REMARK   66  A    between atoms: _167  and  _168
REMARK   67  A    between atoms: _168  and  _169
REMARK   68  A    between atoms: _171  and  _173
REMARK   69  A    between atoms: _173  and  _174
REMARK   70  A    between atoms: _173  and  _176
REMARK   71  A    between atoms: _176  and  _177
REMARK   72  A    between atoms: _177  and  _178
REMARK   73  A    between atoms: _181  and  _183
REMARK   74  A    between atoms: _183  and  _184
REMARK   75  A    between atoms: _183  and  _186
REMARK   76  A    between atoms: _186  and  _187
REMARK   77  A    between atoms: _192  and  _193
REMARK   78  A    between atoms: _195  and  _197
REMARK   79  A    between atoms: _197  and  _198
REMARK   80  A    between atoms: _197  and  _200
REMARK   81  A    between atoms: _200  and  _201
REMARK   82  A    between atoms: _201  and  _202
REMARK   83  A    between atoms: _202  and  _203
REMARK   84  A    between atoms: _212  and  _214
REMARK   85  A    between atoms: _214  and  _215
REMARK   86  A    between atoms: _214  and  _217
REMARK   87  A    between atoms: _217  and  _218
REMARK   88  A    between atoms: _218  and  _219
REMARK   89  A    between atoms: _222  and  _224
REMARK   90  A    between atoms: _224  and  _225
REMARK   91  A    between atoms: _224  and  _227
REMARK   92  A    between atoms: _227  and  _228
REMARK   93  A    between atoms: _228  and  _229
REMARK   94  A    between atoms: _234  and  _236
REMARK   95  A    between atoms: _236  and  _237
REMARK   96  A    between atoms: _236  and  _239
REMARK   97  A    between atoms: _239  and  _240
REMARK   98  A    between atoms: _240  and  _241
REMARK   99  A    between atoms: _241  and  _242
REMARK  100  A    between atoms: _242  and  _243
REMARK  101  A    between atoms: _247  and  _249
REMARK  102  A    between atoms: _249  and  _250
REMARK  103  A    between atoms: _253  and  _255
REMARK  104  A    between atoms: _255  and  _256
REMARK  105  A    between atoms: _255  and  _258
REMARK  106  A    between atoms: _258  and  _259
REMARK  107  A    between atoms: _259  and  _260
REMARK  108  A    between atoms: _260  and  _261
REMARK  109  A    between atoms: _261  and  _262
REMARK  110  A    between atoms: _266  and  _268
REMARK  111  A    between atoms: _268  and  _269
REMARK  112  A    between atoms: _271  and  _273
REMARK  113  A    between atoms: _273  and  _274
REMARK  114  A    between atoms: _273  and  _276
REMARK  115  A    between atoms: _276  and  _277
REMARK  116  A    between atoms: _282  and  _284
REMARK  117  A    between atoms: _284  and  _285
REMARK  118  A    between atoms: _284  and  _287
REMARK  119  A    between atoms: _287  and  _288
REMARK  120  A    between atoms: _288  and  _289
REMARK  121  A    between atoms: _292  and  _294
REMARK  122  A    between atoms: _294  and  _295
REMARK  123  A    between atoms: _294  and  _297
REMARK  124  A    between atoms: _297  and  _298
REMARK  125  A    between atoms: _298  and  _299
REMARK  126  A    between atoms: _304  and  _306
REMARK  127  A    between atoms: _306  and  _307
REMARK  128  A    between atoms: _306  and  _309
REMARK  129  A    between atoms: _309  and  _310
REMARK  130  A    between atoms: _312  and  _314
REMARK  131  A    between atoms: _314  and  _315
REMARK  132  A    between atoms: _314  and  _317
REMARK  133  A    between atoms: _317  and  _318
REMARK  134  A    between atoms: _324  and  _326
REMARK  135  A    between atoms: _326  and  _327
REMARK  136  A    between atoms: _326  and  _329
REMARK  137  A    between atoms: _329  and  _330
REMARK  138  A    between atoms: _330  and  _331
REMARK  139  A    between atoms: _331  and  _332
REMARK  140  A    between atoms: _341  and  _343
REMARK  141  A    between atoms: _343  and  _344
REMARK  142  A    between atoms: _343  and  _346
REMARK  143  A    between atoms: _349  and  _351
REMARK  144  A    between atoms: _351  and  _352
REMARK  145  A    between atoms: _351  and  _354
REMARK  146  A    between atoms: _354  and  _355
REMARK  147  A    between atoms: _358  and  _360
REMARK  148  A    between atoms: _360  and  _361
REMARK  149  A    between atoms: _360  and  _363
REMARK  150  A    between atoms: _363  and  _364
REMARK  151  A    between atoms: _367  and  _369
REMARK  152  A    between atoms: _369  and  _370
REMARK  153  A    between atoms: _369  and  _372
REMARK  154  A    between atoms: _372  and  _373
REMARK  155  A    between atoms: _373  and  _374
REMARK  156  A    between atoms: _374  and  _375
REMARK  157  A    between atoms: _384  and  _386
REMARK  158  A    between atoms: _386  and  _387
REMARK  159  A    between atoms: _386  and  _389
REMARK  160  A    between atoms: _389  and  _390
REMARK  161  A    between atoms: _393  and  _395
REMARK  162  A    between atoms: _395  and  _396
REMARK  163  A    between atoms: _395  and  _398
REMARK  164  A    between atoms: _398  and  _399
REMARK  165  A    between atoms: _402  and  _404
REMARK  166  A    between atoms: _404  and  _405
REMARK  167  A    between atoms: _404  and  _407
REMARK  168  A    between atoms: _407  and  _408
REMARK  169  A    between atoms: _411  and  _413
REMARK  170  A    between atoms: _413  and  _414
REMARK  171  A    between atoms: _413  and  _416
REMARK  172  A    between atoms: _416  and  _417
REMARK  173  A    between atoms: _422  and  _423
REMARK  174  A    between atoms: _425  and  _427
REMARK  175  A    between atoms: _427  and  _428
REMARK  176  A    between atoms: _427  and  _430
REMARK  177  A    between atoms: _430  and  _431
REMARK  178  A    between atoms: _436  and  _437
REMARK  179  A    between atoms: _439  and  _441
REMARK  180  A    between atoms: _441  and  _442
REMARK  181  A    between atoms: _441  and  _444
REMARK  182  A    between atoms: _444  and  _445
REMARK  183  A    between atoms: _448  and  _450
REMARK  184  A    between atoms: _450  and  _451
REMARK  185  A    between atoms: _450  and  _453
REMARK  186  A    between atoms: _456  and  _458
REMARK  187  A    between atoms: _458  and  _459
REMARK  188  A    between atoms: _458  and  _461
REMARK  189  A    between atoms: _461  and  _462
REMARK  190  A    between atoms: _465  and  _467
REMARK  191  A    between atoms: _467  and  _468
REMARK  192  A    between atoms: _467  and  _470
REMARK  193  A    between atoms: _470  and  _471
REMARK  194  A    between atoms: _473  and  _475
REMARK  195  A    between atoms: _475  and  _476
REMARK  196  A    between atoms: _478  and  _480
REMARK  197  A    between atoms: _480  and  _481
REMARK  198  A    between atoms: _480  and  _483
REMARK  199  A    between atoms: _483  and  _484
REMARK  200  A    between atoms: _489  and  _490
REMARK  201  A    between atoms: _492  and  _494
REMARK  202  A    between atoms: _494  and  _495
REMARK  203  A    between atoms: _494  and  _497
REMARK  204  A    between atoms: _497  and  _498
REMARK  205  A    between atoms: _498  and  _499
REMARK  206  A    between atoms: _504  and  _506
REMARK  207  A    between atoms: _506  and  _507
REMARK  208  A    between atoms: _506  and  _509
REMARK  209  A    between atoms: _509  and  _510
REMARK  210  A    between atoms: _510  and  _511
REMARK  211  A    between atoms: _516  and  _518
REMARK  212  A    between atoms: _518  and  _519
REMARK  213  A    between atoms: _518  and  _521
REMARK  214  A    between atoms: _521  and  _522
REMARK  215  A    between atoms: _527  and  _528
REMARK  216  A    between atoms: _530  and  _532
REMARK  217  A    between atoms: _532  and  _533
REMARK  218  A    between atoms: _532  and  _535
REMARK  219  A    between atoms: _535  and  _536
REMARK  220  A    between atoms: _541  and  _542
REMARK  221  A    between atoms: _544  and  _546
REMARK  222  A    between atoms: _546  and  _547
REMARK  223  A    between atoms: _546  and  _549
REMARK  224  A    between atoms: _549  and  _550
REMARK  225  A    between atoms: _555  and  _556
REMARK  226  A    between atoms: _558  and  _560
REMARK  227  A    between atoms: _560  and  _561
REMARK  228  A    between atoms: _560  and  _563
REMARK  229  A    between atoms: _563  and  _564
REMARK  230  A    between atoms: _567  and  _569
REMARK  231  A    between atoms: _569  and  _570
REMARK  232  A    between atoms: _569  and  _572
REMARK  233  A    between atoms: _572  and  _573
REMARK  234  A    between atoms: _583  and  _585
REMARK  235  A    between atoms: _585  and  _586
REMARK  236  A    between atoms: _589  and  _591
REMARK  237  A    between atoms: _591  and  _592
REMARK  238  A    between atoms: _595  and  _597
REMARK  239  A    between atoms: _597  and  _598
REMARK  240  A    between atoms: _597  and  _600
REMARK  241  A    between atoms: _600  and  _601
REMARK  242  A    between atoms: _604  and  _606
REMARK  243  A    between atoms: _606  and  _607
REMARK  244  A    between atoms: _606  and  _609
REMARK  245  A    between atoms: _609  and  _610
REMARK  246  A    between atoms: _613  and  _615
REMARK  247  A    between atoms: _615  and  _616
REMARK  248  A    between atoms: _615  and  _618
REMARK  249  A    between atoms: _618  and  _619
REMARK  250  A    between atoms: _622  and  _624
REMARK  251  A    between atoms: _624  and  _625
REMARK  252  A    between atoms: _624  and  _627
REMARK  253  A    between atoms: _627  and  _628
REMARK  254  A    between atoms: _628  and  _629
REMARK  255  A    between atoms: _629  and  _630
REMARK  256  A    between atoms: _630  and  _631
REMARK  257  A    between atoms: _635  and  _637
REMARK  258  A    between atoms: _637  and  _638
REMARK  259  A    between atoms: _637  and  _640
REMARK  260  A    between atoms: _640  and  _641
REMARK  261  A    between atoms: _646  and  _648
REMARK  262  A    between atoms: _648  and  _649
REMARK  263  A    between atoms: _648  and  _651
REMARK  264  A    between atoms: _651  and  _652
REMARK  265  A    between atoms: _652  and  _653
REMARK  266  A    between atoms: _653  and  _654
REMARK  267  A    between atoms: _654  and  _655
REMARK  268  A    between atoms: _659  and  _661
REMARK  269  A    between atoms: _661  and  _662
REMARK  270  A    between atoms: _661  and  _664
REMARK  271  A    between atoms: _664  and  _665
REMARK  272  A    between atoms: _675  and  _677
REMARK  273  A    between atoms: _677  and  _678
REMARK  274  A    between atoms: _681  and  _683
REMARK  275  A    between atoms: _683  and  _684
REMARK  276  A    between atoms: _686  and  _688
REMARK  277  A    between atoms: _688  and  _689
REMARK  278  A    between atoms: _688  and  _691
REMARK  279  A    between atoms: _691  and  _692
REMARK  280  A    between atoms: _692  and  _693
REMARK  281  A    between atoms: _696  and  _698
REMARK  282  A    between atoms: _698  and  _699
REMARK  283  A    between atoms: _702  and  _704
REMARK  284  A    between atoms: _704  and  _705
REMARK  285  A    between atoms: _704  and  _707
REMARK  286  A    between atoms: _707  and  _708
REMARK  287  A    between atoms: _708  and  _709
REMARK  288  A    between atoms: _712  and  _714
REMARK  289  A    between atoms: _714  and  _715
REMARK  290  A    between atoms: _714  and  _717
REMARK  291  A    between atoms: _717  and  _718
REMARK  292  A    between atoms: _718  and  _719
REMARK  293  A    between atoms: _719  and  _720
REMARK  294  A    between atoms: _729  and  _731
REMARK  295  A    between atoms: _731  and  _732
REMARK  296  A    between atoms: _731  and  _734
REMARK  297  A    between atoms: _734  and  _735
REMARK  298  A    between atoms: _738  and  _740
REMARK  299  A    between atoms: _740  and  _741
REMARK  300  A    between atoms: _740  and  _743
REMARK  301  A    between atoms: _743  and  _744
REMARK  302  A    between atoms: _744  and  _745
REMARK  303  A    between atoms: _745  and  _746
REMARK  304  A    between atoms: _755  and  _757
REMARK  305  A    between atoms: _757  and  _758
REMARK  306  A    between atoms: _761  and  _763
REMARK  307  A    between atoms: _763  and  _764
REMARK  308  A    between atoms: _763  and  _766
REMARK  309  A    between atoms: _766  and  _767
REMARK  310  A    between atoms: _772  and  _773
REMARK  311  A    between atoms: _775  and  _777
REMARK  312  A    between atoms: _777  and  _778
REMARK  313  A    between atoms: _777  and  _780
REMARK  314  A    between atoms: _780  and  _781
REMARK  315  A    between atoms: _784  and  _786
REMARK  316  A    between atoms: _786  and  _787
REMARK  317  A    between atoms: _786  and  _789
REMARK  318  A    between atoms: _789  and  _790
REMARK  319  A    between atoms: _793  and  _795
REMARK  320  A    between atoms: _795  and  _796
REMARK  321  A    between atoms: _795  and  _798
REMARK  322  A    between atoms: _800  and  _802
REMARK  323  A    between atoms: _802  and  _803
REMARK  324  A    between atoms: _802  and  _805
REMARK  325  A    between atoms: _808  and  _810
REMARK  326  A    between atoms: _810  and  _811
REMARK  327  A    between atoms: _810  and  _813
REMARK  328  A    between atoms: _813  and  _814
REMARK  329  A    between atoms: _814  and  _815
REMARK  330  A    between atoms: _818  and  _820
REMARK  331  A    between atoms: _820  and  _821
REMARK  332  A    between atoms: _820  and  _823
REMARK  333  A    between atoms: _823  and  _824
REMARK  334  A    between atoms: _834  and  _836
REMARK  335  A    between atoms: _836  and  _837
REMARK  336  A    between atoms: _836  and  _839
REMARK  337  A    between atoms: _839  and  _840
REMARK  338  A    between atoms: _843  and  _845
REMARK  339  A    between atoms: _845  and  _846
REMARK  340  A    between atoms: _845  and  _848
REMARK  341  A    between atoms: _848  and  _849
REMARK  342  A    between atoms: _849  and  _850
REMARK  343  A    between atoms: _850  and  _851
REMARK  344  A    between atoms: _860  and  _862
REMARK  345  A    between atoms: _862  and  _863
REMARK  346  A    between atoms: _862  and  _865
REMARK  347  A    between atoms: _865  and  _866
REMARK  348  A    between atoms: _871  and  _872
REMARK  349  A    between atoms: _874  and  _876
REMARK  350  A    between atoms: _876  and  _877
REMARK  351  A    between atoms: _876  and  _879
REMARK  352  A    between atoms: _879  and  _880
REMARK  353  A    between atoms: _880  and  _881
REMARK  354  A    between atoms: _886  and  _888
REMARK  355  A    between atoms: _888  and  _889
REMARK  356  A    between atoms: _888  and  _891
REMARK  357  A    between atoms: _891  and  _892
REMARK  358  A    between atoms: _895  and  _897
REMARK  359  A    between atoms: _897  and  _898
REMARK  360  A    between atoms: _897  and  _900
REMARK  361  A    between atoms: _900  and  _901
REMARK  362  A    between atoms: _903  and  _905
REMARK  363  A    between atoms: _905  and  _906
REMARK  364  A    between atoms: _905  and  _908
REMARK  365  A    between atoms: _908  and  _909
REMARK  366  A    between atoms: _911  and  _913
REMARK  367  A    between atoms: _913  and  _914
REMARK  368  A    between atoms: _913  and  _916
REMARK  369  A    between atoms: _916  and  _917
REMARK  370  A    between atoms: _923  and  _925
REMARK  371  A    between atoms: _925  and  _926
REMARK  372  A    between atoms: _925  and  _928
REMARK  373  A    between atoms: _928  and  _929
REMARK  374  A    between atoms: _929  and  _930
REMARK  375  A    between atoms: _930  and  _931
REMARK  376  A    between atoms: _940  and  _942
REMARK  377  A    between atoms: _942  and  _943
REMARK  378  A    between atoms: _942  and  _945
REMARK  379  A    between atoms: _945  and  _946
REMARK  380  A    between atoms: _946  and  _947
REMARK  381  A    between atoms: _947  and  _948
REMARK  382  A    between atoms: _957  and  _959
REMARK  383  A    between atoms: _959  and  _960
REMARK  384  A    between atoms: _962  and  _964
REMARK  385  A    between atoms: _964  and  _965
REMARK  386  A    between atoms: _964  and  _967
REMARK  387  A    between atoms: _967  and  _968
REMARK  388  A    between atoms: _974  and  _975
REMARK  389  A    between atoms: _980  and  _982
REMARK  390  A    between atoms: _982  and  _983
REMARK  391  A    between atoms: _982  and  _985
REMARK  392  A    between atoms: _985  and  _986
REMARK  393  A    between atoms: _996  and  _998
REMARK  394  A    between atoms: _998  and  _999
REMARK  395  A    between atoms: _998  and  _1001
REMARK  396  A    between atoms: _1001  and  _1002
REMARK  397  A    between atoms: _1002  and  _1003
REMARK  398  A    between atoms: _1003  and  _1004
REMARK  399  A    between atoms: _1013  and  _1015
REMARK  400  A    between atoms: _1015  and  _1016
REMARK  401  A    between atoms: _1015  and  _1018
REMARK  402  A    between atoms: _1018  and  _1019
REMARK  403  A    between atoms: _1021  and  _1023
REMARK  404  A    between atoms: _1023  and  _1024
REMARK  405  A    between atoms: _1027  and  _1029
REMARK  406  A    between atoms: _1029  and  _1030
REMARK  407  A    between atoms: _1029  and  _1032
REMARK  408  A    between atoms: _1032  and  _1033
REMARK  409  A    between atoms: _1036  and  _1038
REMARK  410  A    between atoms: _1038  and  _1039
REMARK  411  A    between atoms: _1038  and  _1041
REMARK  412  A    between atoms: _1041  and  _1042
REMARK  413  A    between atoms: _1042  and  _1043
REMARK  414  A    between atoms: _1043  and  _1044
REMARK  415  A    between atoms: _1053  and  _1055
REMARK  416  A    between atoms: _1055  and  _1056
REMARK  417  A    between atoms: _1055  and  _1058
REMARK  418  A    between atoms: _1061  and  _1063
REMARK  419  A    between atoms: _1063  and  _1064
REMARK  420  A    between atoms: _1066  and  _1068
REMARK  421  A    between atoms: _1068  and  _1069
REMARK  422  A    between atoms: _1068  and  _1071
REMARK  423  A    between atoms: _1071  and  _1072
REMARK                            x       y       z     vdW  Elec       q    Type
REMARK                         _______ _______ _______ _____ _____    ______ ____
ROOT
ATOM      1  O   HOH     1      21.106  31.855  59.526  0.00  0.00    +0.000 OA
ENDROOT
TORSDOF 0
REMARK  Name = ../refined-set-2016/1fo0/1fo0_pocket.pdb
REMARK  423 active torsions:
REMARK  status: ('A' for Active; 'I' for Inactive)
REMARK    1  A    between atoms: _1  and  _3
REMARK    2  A    between atoms: _3  and  _4
REMARK    3  A    between atoms: _3  and  _6
REMARK    4  A    between atoms: _6  and  _7
REMARK    5  A    between atoms: _10  and  _12
REMARK    6  A    between atoms: _12  and  _13
REMARK    7  A    between atoms: _12  and  _15
REMARK    8  A    between atoms: _15  and  _16
REMARK    9  A    between atoms: _16  and  _17
REMARK   10  A    between atoms: _17  and  _18
REMARK   11  A    between atoms: _27  and  _29
REMARK   12  A    between atoms: _29  and  _30
REMARK   13  A    between atoms: _29  and  _32
REMARK   14  A    between atoms: _32  and  _33
REMARK   15  A    between atoms: _38  and  _39
REMARK   16  A    between atoms: _41  and  _43
REMARK   17  A    between atoms: _43  and  _44
REMARK   18  A    between atoms: _43  and  _46
REMARK   19  A    between atoms: _46  and  _47
REMARK   20  A    between atoms: _53  and  _55
REMARK   21  A    between atoms: _55  and  _56
REMARK   22  A    between atoms: _55  and  _58
REMARK   23  A    between atoms: _61  and  _63
REMARK   24  A    between atoms: _63  and  _64
REMARK   25  A    between atoms: _63  and  _66
REMARK   26  A    between atoms: _66  and  _67
REMARK   27  A    between atoms: _70  and  _72
REMARK   28  A    between atoms: _72  and  _73
REMARK   29  A    between atoms: _72  and  _75
REMARK   30  A    between atoms: _75  and  _76
REMARK   31  A    between atoms: _81  and  _82
REMARK   32  A    between atoms: _84  and  _86
REMARK   33  A    between atoms: _86  and  _87
REMARK   34  A    between atoms: _86  and  _89
REMARK   35  A    between atoms: _89  and  _90
REMARK   36  A    between atoms: _90  and  _91
REMARK   37  A    between atoms: _93  and  _95
REMARK   38  A    between atoms: _95  and  _96
REMARK   39  A    between atoms: _95  and  _98
REMARK   40  A    between atoms: _98  and  _99
REMARK   41  A    between atoms: _99  and  _100
REMARK   42  A    between atoms: _103  and  _105
REMARK   43  A    between atoms: _105  and  _106
REMARK   44  A    between atoms: _105  and  _108
REMARK   45  A    between atoms: _111  and  _113
REMARK   46  A    between atoms: _113  and  _114
REMARK   47  A    between atoms: _116  and  _118
REMARK   48  A    between atoms: _118  and  _119
REMARK   49  A    between atoms: _118  and  _121
REMARK   50  A    between atoms: _121  and  _122
REMARK   51  A    between atoms: _128  and  _130
REMARK   52  A    between atoms: _130  and  _131
REMARK   53  A    between atoms: _130  and  _133
REMARK   54  A    between atoms: _136  and  _138
REMARK   55  A    between atoms: _138  and  _139
REMARK   56  A    between atoms: _138  and  _141
REMARK   57  A    between atoms: _141  and  _142
REMARK   58  A    between atoms: _148  and  _150
REMARK   59  A    between atoms: _150  and  _151
REMARK   60  A    between atoms: _150  and  _153
REMARK   61  A    between atoms: _153  and  _154
REMARK   62  A    between atoms: _159  and  _160
REMARK   63  A    between atoms: _162  and  _164
REMARK   64  A    between atoms: _164  and  _165
REMARK   65  A    between atoms: _164  and  _167
REMARK   66  A    between atoms: _167  and  _168
REMARK   67  A    between atoms: _168  and  _169
REMARK   68  A    between atoms: _171  and  _173
REMARK   69  A    between atoms: _173  and  _174
REMARK   70  A    between atoms: _173  and  _176
REMARK   71  A    between atoms: _176  and  _177
REMARK   72  A    between atoms: _177  and  _178
REMARK   73  A    between atoms: _181  and  _183
REMARK   74  A    between atoms: _183  and  _184
REMARK   75  A    between atoms: _183  and  _186
REMARK   76  A    between atoms: _186  and  _187
REMARK   77  A    between atoms: _192  and  _193
REMARK   78  A    between atoms: _195  and  _197
REMARK   79  A    between atoms: _197  and  _198
REMARK   80  A    between atoms: _197  and  _200
REMARK   81  A    between atoms: _200  and  _201
REMARK   82  A    between atoms: _201  and  _202
REMARK   83  A    between atoms: _202  and  _203
REMARK   84  A    between atoms: _212  and  _214
REMARK   85  A    between atoms: _214  and  _215
REMARK   86  A    between atoms: _214  and  _217
REMARK   87  A    between atoms: _217  and  _218
REMARK   88  A    between atoms: _218  and  _219
REMARK   89  A    between atoms: _222  and  _224
REMARK   90  A    between atoms: _224  and  _225
REMARK   91  A    between atoms: _224  and  _227
REMARK   92  A    between atoms: _227  and  _228
REMARK   93  A    between atoms: _228  and  _229
REMARK   94  A    between atoms: _234  and  _236
REMARK   95  A    between atoms: _236  and  _237
REMARK   96  A    between atoms: _236  and  _239
REMARK   97  A    between atoms: _239  and  _240
REMARK   98  A    between atoms: _240  and  _241
REMARK   99  A    between atoms: _241  and  _242
REMARK  100  A    between atoms: _242  and  _243
REMARK  101  A    between atoms: _247  and  _249
REMARK  102  A    between atoms: _249  and  _250
REMARK  103  A    between atoms: _253  and  _255
REMARK  104  A    between atoms: _255  and  _256
REMARK  105  A    between atoms: _255  and  _258
REMARK  106  A    between atoms: _258  and  _259
REMARK  107  A    between atoms: _259  and  _260
REMARK  108  A    between atoms: _260  and  _261
REMARK  109  A    between atoms: _261  and  _262
REMARK  110  A    between atoms: _266  and  _268
REMARK  111  A    between atoms: _268  and  _269
REMARK  112  A    between atoms: _271  and  _273
REMARK  113  A    between atoms: _273  and  _274
REMARK  114  A    between atoms: _273  and  _276
REMARK  115  A    between atoms: _276  and  _277
REMARK  116  A    between atoms: _282  and  _284
REMARK  117  A    between atoms: _284  and  _285
REMARK  118  A    between atoms: _284  and  _287
REMARK  119  A    between atoms: _287  and  _288
REMARK  120  A    between atoms: _288  and  _289
REMARK  121  A    between atoms: _292  and  _294
REMARK  122  A    between atoms: _294  and  _295
REMARK  123  A    between atoms: _294  and  _297
REMARK  124  A    between atoms: _297  and  _298
REMARK  125  A    between atoms: _298  and  _299
REMARK  126  A    between atoms: _304  and  _306
REMARK  127  A    between atoms: _306  and  _307
REMARK  128  A    between atoms: _306  and  _309
REMARK  129  A    between atoms: _309  and  _310
REMARK  130  A    between atoms: _312  and  _314
REMARK  131  A    between atoms: _314  and  _315
REMARK  132  A    between atoms: _314  and  _317
REMARK  133  A    between atoms: _317  and  _318
REMARK  134  A    between atoms: _324  and  _326
REMARK  135  A    between atoms: _326  and  _327
REMARK  136  A    between atoms: _326  and  _329
REMARK  137  A    between atoms: _329  and  _330
REMARK  138  A    between atoms: _330  and  _331
REMARK  139  A    between atoms: _331  and  _332
REMARK  140  A    between atoms: _341  and  _343
REMARK  141  A    between atoms: _343  and  _344
REMARK  142  A    between atoms: _343  and  _346
REMARK  143  A    between atoms: _349  and  _351
REMARK  144  A    between atoms: _351  and  _352
REMARK  145  A    between atoms: _351  and  _354
REMARK  146  A    between atoms: _354  and  _355
REMARK  147  A    between atoms: _358  and  _360
REMARK  148  A    between atoms: _360  and  _361
REMARK  149  A    between atoms: _360  and  _363
REMARK  150  A    between atoms: _363  and  _364
REMARK  151  A    between atoms: _367  and  _369
REMARK  152  A    between atoms: _369  and  _370
REMARK  153  A    between atoms: _369  and  _372
REMARK  154  A    between atoms: _372  and  _373
REMARK  155  A    between atoms: _373  and  _374
REMARK  156  A    between atoms: _374  and  _375
REMARK  157  A    between atoms: _384  and  _386
REMARK  158  A    between atoms: _386  and  _387
REMARK  159  A    between atoms: _386  and  _389
REMARK  160  A    between atoms: _389  and  _390
REMARK  161  A    between atoms: _393  and  _395
REMARK  162  A    between atoms: _395  and  _396
REMARK  163  A    between atoms: _395  and  _398
REMARK  164  A    between atoms: _398  and  _399
REMARK  165  A    between atoms: _402  and  _404
REMARK  166  A    between atoms: _404  and  _405
REMARK  167  A    between atoms: _404  and  _407
REMARK  168  A    between atoms: _407  and  _408
REMARK  169  A    between atoms: _411  and  _413
REMARK  170  A    between atoms: _413  and  _414
REMARK  171  A    between atoms: _413  and  _416
REMARK  172  A    between atoms: _416  and  _417
REMARK  173  A    between atoms: _422  and  _423
REMARK  174  A    between atoms: _425  and  _427
REMARK  175  A    between atoms: _427  and  _428
REMARK  176  A    between atoms: _427  and  _430
REMARK  177  A    between atoms: _430  and  _431
REMARK  178  A    between atoms: _436  and  _437
REMARK  179  A    between atoms: _439  and  _441
REMARK  180  A    between atoms: _441  and  _442
REMARK  181  A    between atoms: _441  and  _444
REMARK  182  A    between atoms: _444  and  _445
REMARK  183  A    between atoms: _448  and  _450
REMARK  184  A    between atoms: _450  and  _451
REMARK  185  A    between atoms: _450  and  _453
REMARK  186  A    between atoms: _456  and  _458
REMARK  187  A    between atoms: _458  and  _459
REMARK  188  A    between atoms: _458  and  _461
REMARK  189  A    between atoms: _461  and  _462
REMARK  190  A    between atoms: _465  and  _467
REMARK  191  A    between atoms: _467  and  _468
REMARK  192  A    between atoms: _467  and  _470
REMARK  193  A    between atoms: _470  and  _471
REMARK  194  A    between atoms: _473  and  _475
REMARK  195  A    between atoms: _475  and  _476
REMARK  196  A    between atoms: _478  and  _480
REMARK  197  A    between atoms: _480  and  _481
REMARK  198  A    between atoms: _480  and  _483
REMARK  199  A    between atoms: _483  and  _484
REMARK  200  A    between atoms: _489  and  _490
REMARK  201  A    between atoms: _492  and  _494
REMARK  202  A    between atoms: _494  and  _495
REMARK  203  A    between atoms: _494  and  _497
REMARK  204  A    between atoms: _497  and  _498
REMARK  205  A    between atoms: _498  and  _499
REMARK  206  A    between atoms: _504  and  _506
REMARK  207  A    between atoms: _506  and  _507
REMARK  208  A    between atoms: _506  and  _509
REMARK  209  A    between atoms: _509  and  _510
REMARK  210  A    between atoms: _510  and  _511
REMARK  211  A    between atoms: _516  and  _518
REMARK  212  A    between atoms: _518  and  _519
REMARK  213  A    between atoms: _518  and  _521
REMARK  214  A    between atoms: _521  and  _522
REMARK  215  A    between atoms: _527  and  _528
REMARK  216  A    between atoms: _530  and  _532
REMARK  217  A    between atoms: _532  and  _533
REMARK  218  A    between atoms: _532  and  _535
REMARK  219  A    between atoms: _535  and  _536
REMARK  220  A    between atoms: _541  and  _542
REMARK  221  A    between atoms: _544  and  _546
REMARK  222  A    between atoms: _546  and  _547
REMARK  223  A    between atoms: _546  and  _549
REMARK  224  A    between atoms: _549  and  _550
REMARK  225  A    between atoms: _555  and  _556
REMARK  226  A    between atoms: _558  and  _560
REMARK  227  A    between atoms: _560  and  _561
REMARK  228  A    between atoms: _560  and  _563
REMARK  229  A    between atoms: _563  and  _564
REMARK  230  A    between atoms: _567  and  _569
REMARK  231  A    between atoms: _569  and  _570
REMARK  232  A    between atoms: _569  and  _572
REMARK  233  A    between atoms: _572  and  _573
REMARK  234  A    between atoms: _583  and  _585
REMARK  235  A    between atoms: _585  and  _586
REMARK  236  A    between atoms: _589  and  _591
REMARK  237  A    between atoms: _591  and  _592
REMARK  238  A    between atoms: _595  and  _597
REMARK  239  A    between atoms: _597  and  _598
REMARK  240  A    between atoms: _597  and  _600
REMARK  241  A    between atoms: _600  and  _601
REMARK  242  A    between atoms: _604  and  _606
REMARK  243  A    between atoms: _606  and  _607
REMARK  244  A    between atoms: _606  and  _609
REMARK  245  A    between atoms: _609  and  _610
REMARK  246  A    between atoms: _613  and  _615
REMARK  247  A    between atoms: _615  and  _616
REMARK  248  A    between atoms: _615  and  _618
REMARK  249  A    between atoms: _618  and  _619
REMARK  250  A    between atoms: _622  and  _624
REMARK  251  A    between atoms: _624  and  _625
REMARK  252  A    between atoms: _624  and  _627
REMARK  253  A    between atoms: _627  and  _628
REMARK  254  A    between atoms: _628  and  _629
REMARK  255  A    between atoms: _629  and  _630
REMARK  256  A    between atoms: _630  and  _631
REMARK  257  A    between atoms: _635  and  _637
REMARK  258  A    between atoms: _637  and  _638
REMARK  259  A    between atoms: _637  and  _640
REMARK  260  A    between atoms: _640  and  _641
REMARK  261  A    between atoms: _646  and  _648
REMARK  262  A    between atoms: _648  and  _649
REMARK  263  A    between atoms: _648  and  _651
REMARK  264  A    between atoms: _651  and  _652
REMARK  265  A    between atoms: _652  and  _653
REMARK  266  A    between atoms: _653  and  _654
REMARK  267  A    between atoms: _654  and  _655
REMARK  268  A    between atoms: _659  and  _661
REMARK  269  A    between atoms: _661  and  _662
REMARK  270  A    between atoms: _661  and  _664
REMARK  271  A    between atoms: _664  and  _665
REMARK  272  A    between atoms: _675  and  _677
REMARK  273  A    between atoms: _677  and  _678
REMARK  274  A    between atoms: _681  and  _683
REMARK  275  A    between atoms: _683  and  _684
REMARK  276  A    between atoms: _686  and  _688
REMARK  277  A    between atoms: _688  and  _689
REMARK  278  A    between atoms: _688  and  _691
REMARK  279  A    between atoms: _691  and  _692
REMARK  280  A    between atoms: _692  and  _693
REMARK  281  A    between atoms: _696  and  _698
REMARK  282  A    between atoms: _698  and  _699
REMARK  283  A    between atoms: _702  and  _704
REMARK  284  A    between atoms: _704  and  _705
REMARK  285  A    between atoms: _704  and  _707
REMARK  286  A    between atoms: _707  and  _708
REMARK  287  A    between atoms: _708  and  _709
REMARK  288  A    between atoms: _712  and  _714
REMARK  289  A    between atoms: _714  and  _715
REMARK  290  A    between atoms: _714  and  _717
REMARK  291  A    between atoms: _717  and  _718
REMARK  292  A    between atoms: _718  and  _719
REMARK  293  A    between atoms: _719  and  _720
REMARK  294  A    between atoms: _729  and  _731
REMARK  295  A    between atoms: _731  and  _732
REMARK  296  A    between atoms: _731  and  _734
REMARK  297  A    between atoms: _734  and  _735
REMARK  298  A    between atoms: _738  and  _740
REMARK  299  A    between atoms: _740  and  _741
REMARK  300  A    between atoms: _740  and  _743
REMARK  301  A    between atoms: _743  and  _744
REMARK  302  A    between atoms: _744  and  _745
REMARK  303  A    between atoms: _745  and  _746
REMARK  304  A    between atoms: _755  and  _757
REMARK  305  A    between atoms: _757  and  _758
REMARK  306  A    between atoms: _761  and  _763
REMARK  307  A    between atoms: _763  and  _764
REMARK  308  A    between atoms: _763  and  _766
REMARK  309  A    between atoms: _766  and  _767
REMARK  310  A    between atoms: _772  and  _773
REMARK  311  A    between atoms: _775  and  _777
REMARK  312  A    between atoms: _777  and  _778
REMARK  313  A    between atoms: _777  and  _780
REMARK  314  A    between atoms: _780  and  _781
REMARK  315  A    between atoms: _784  and  _786
REMARK  316  A    between atoms: _786  and  _787
REMARK  317  A    between atoms: _786  and  _789
REMARK  318  A    between atoms: _789  and  _790
REMARK  319  A    between atoms: _793  and  _795
REMARK  320  A    between atoms: _795  and  _796
REMARK  321  A    between atoms: _795  and  _798
REMARK  322  A    between atoms: _800  and  _802
REMARK  323  A    between atoms: _802  and  _803
REMARK  324  A    between atoms: _802  and  _805
REMARK  325  A    between atoms: _808  and  _810
REMARK  326  A    between atoms: _810  and  _811
REMARK  327  A    between atoms: _810  and  _813
REMARK  328  A    between atoms: _813  and  _814
REMARK  329  A    between atoms: _814  and  _815
REMARK  330  A    between atoms: _818  and  _820
REMARK  331  A    between atoms: _820  and  _821
REMARK  332  A    between atoms: _820  and  _823
REMARK  333  A    between atoms: _823  and  _824
REMARK  334  A    between atoms: _834  and  _836
REMARK  335  A    between atoms: _836  and  _837
REMARK  336  A    between atoms: _836  and  _839
REMARK  337  A    between atoms: _839  and  _840
REMARK  338  A    between atoms: _843  and  _845
REMARK  339  A    between atoms: _845  and  _846
REMARK  340  A    between atoms: _845  and  _848
REMARK  341  A    between atoms: _848  and  _849
REMARK  342  A    between atoms: _849  and  _850
REMARK  343  A    between atoms: _850  and  _851
REMARK  344  A    between atoms: _860  and  _862
REMARK  345  A    between atoms: _862  and  _863
REMARK  346  A    between atoms: _862  and  _865
REMARK  347  A    between atoms: _865  and  _866
REMARK  348  A    between atoms: _871  and  _872
REMARK  349  A    between atoms: _874  and  _876
REMARK  350  A    between atoms: _876  and  _877
REMARK  351  A    between atoms: _876  and  _879
REMARK  352  A    between atoms: _879  and  _880
REMARK  353  A    between atoms: _880  and  _881
REMARK  354  A    between atoms: _886  and  _888
REMARK  355  A    between atoms: _888  and  _889
REMARK  356  A    between atoms: _888  and  _891
REMARK  357  A    between atoms: _891  and  _892
REMARK  358  A    between atoms: _895  and  _897
REMARK  359  A    between atoms: _897  and  _898
REMARK  360  A    between atoms: _897  and  _900
REMARK  361  A    between atoms: _900  and  _901
REMARK  362  A    between atoms: _903  and  _905
REMARK  363  A    between atoms: _905  and  _906
REMARK  364  A    between atoms: _905  and  _908
REMARK  365  A    between atoms: _908  and  _909
REMARK  366  A    between atoms: _911  and  _913
REMARK  367  A    between atoms: _913  and  _914
REMARK  368  A    between atoms: _913  and  _916
REMARK  369  A    between atoms: _916  and  _917
REMARK  370  A    between atoms: _923  and  _925
REMARK  371  A    between atoms: _925  and  _926
REMARK  372  A    between atoms: _925  and  _928
REMARK  373  A    between atoms: _928  and  _929
REMARK  374  A    between atoms: _929  and  _930
REMARK  375  A    between atoms: _930  and  _931
REMARK  376  A    between atoms: _940  and  _942
REMARK  377  A    between atoms: _942  and  _943
REMARK  378  A    between atoms: _942  and  _945
REMARK  379  A    between atoms: _945  and  _946
REMARK  380  A    between atoms: _946  and  _947
REMARK  381  A    between atoms: _947  and  _948
REMARK  382  A    between atoms: _957  and  _959
REMARK  383  A    between atoms: _959  and  _960
REMARK  384  A    between atoms: _962  and  _964
REMARK  385  A    between atoms: _964  and  _965
REMARK  386  A    between atoms: _964  and  _967
REMARK  387  A    between atoms: _967  and  _968
REMARK  388  A    between atoms: _974  and  _975
REMARK  389  A    between atoms: _980  and  _982
REMARK  390  A    between atoms: _982  and  _983
REMARK  391  A    between atoms: _982  and  _985
REMARK  392  A    between atoms: _985  and  _986
REMARK  393  A    between atoms: _996  and  _998
REMARK  394  A    between atoms: _998  and  _999
REMARK  395  A    between atoms: _998  and  _1001
REMARK  396  A    between atoms: _1001  and  _1002
REMARK  397  A    between atoms: _1002  and  _1003
REMARK  398  A    between atoms: _1003  and  _1004
REMARK  399  A    between atoms: _1013  and  _1015
REMARK  400  A    between atoms: _1015  and  _1016
REMARK  401  A    between atoms: _1015  and  _1018
REMARK  402  A    between atoms: _1018  and  _1019
REMARK  403  A    between atoms: _1021  and  _1023
REMARK  404  A    between atoms: _1023  and  _1024
REMARK  405  A    between atoms: _1027  and  _1029
REMARK  406  A    between atoms: _1029  and  _1030
REMARK  407  A    between atoms: _1029  and  _1032
REMARK  408  A    between atoms: _1032  and  _1033
REMARK  409  A    between atoms: _1036  and  _1038
REMARK  410  A    between atoms: _1038  and  _1039
REMARK  411  A    between atoms: _1038  and  _1041
REMARK  412  A    between atoms: _1041  and  _1042
REMARK  413  A    between atoms: _1042  and  _1043
REMARK  414  A    between atoms: _1043  and  _1044
REMARK  415  A    between atoms: _1053  and  _1055
REMARK  416  A    between atoms: _1055  and  _1056
REMARK  417  A    between atoms: _1055  and  _1058
REMARK  418  A    between atoms: _1061  and  _1063
REMARK  419  A    between atoms: _1063  and  _1064
REMARK  420  A    between atoms: _1066  and  _1068
REMARK  421  A    between atoms: _1068  and  _1069
REMARK  422  A    between atoms: _1068  and  _1071
REMARK  423  A    between atoms: _1071  and  _1072
REMARK                            x       y       z     vdW  Elec       q    Type
REMARK                         _______ _______ _______ _____ _____    ______ ____
ROOT
ATOM      1  O   HOH     1      17.055  28.751  60.520  0.00  0.00    +0.000 OA
ENDROOT
TORSDOF 0
REMARK  Name = ../refined-set-2016/1fo0/1fo0_pocket.pdb
REMARK  423 active torsions:
REMARK  status: ('A' for Active; 'I' for Inactive)
REMARK    1  A    between atoms: _1  and  _3
REMARK    2  A    between atoms: _3  and  _4
REMARK    3  A    between atoms: _3  and  _6
REMARK    4  A    between atoms: _6  and  _7
REMARK    5  A    between atoms: _10  and  _12
REMARK    6  A    between atoms: _12  and  _13
REMARK    7  A    between atoms: _12  and  _15
REMARK    8  A    between atoms: _15  and  _16
REMARK    9  A    between atoms: _16  and  _17
REMARK   10  A    between atoms: _17  and  _18
REMARK   11  A    between atoms: _27  and  _29
REMARK   12  A    between atoms: _29  and  _30
REMARK   13  A    between atoms: _29  and  _32
REMARK   14  A    between atoms: _32  and  _33
REMARK   15  A    between atoms: _38  and  _39
REMARK   16  A    between atoms: _41  and  _43
REMARK   17  A    between atoms: _43  and  _44
REMARK   18  A    between atoms: _43  and  _46
REMARK   19  A    between atoms: _46  and  _47
REMARK   20  A    between atoms: _53  and  _55
REMARK   21  A    between atoms: _55  and  _56
REMARK   22  A    between atoms: _55  and  _58
REMARK   23  A    between atoms: _61  and  _63
REMARK   24  A    between atoms: _63  and  _64
REMARK   25  A    between atoms: _63  and  _66
REMARK   26  A    between atoms: _66  and  _67
REMARK   27  A    between atoms: _70  and  _72
REMARK   28  A    between atoms: _72  and  _73
REMARK   29  A    between atoms: _72  and  _75
REMARK   30  A    between atoms: _75  and  _76
REMARK   31  A    between atoms: _81  and  _82
REMARK   32  A    between atoms: _84  and  _86
REMARK   33  A    between atoms: _86  and  _87
REMARK   34  A    between atoms: _86  and  _89
REMARK   35  A    between atoms: _89  and  _90
REMARK   36  A    between atoms: _90  and  _91
REMARK   37  A    between atoms: _93  and  _95
REMARK   38  A    between atoms: _95  and  _96
REMARK   39  A    between atoms: _95  and  _98
REMARK   40  A    between atoms: _98  and  _99
REMARK   41  A    between atoms: _99  and  _100
REMARK   42  A    between atoms: _103  and  _105
REMARK   43  A    between atoms: _105  and  _106
REMARK   44  A    between atoms: _105  and  _108
REMARK   45  A    between atoms: _111  and  _113
REMARK   46  A    between atoms: _113  and  _114
REMARK   47  A    between atoms: _116  and  _118
REMARK   48  A    between atoms: _118  and  _119
REMARK   49  A    between atoms: _118  and  _121
REMARK   50  A    between atoms: _121  and  _122
REMARK   51  A    between atoms: _128  and  _130
REMARK   52  A    between atoms: _130  and  _131
REMARK   53  A    between atoms: _130  and  _133
REMARK   54  A    between atoms: _136  and  _138
REMARK   55  A    between atoms: _138  and  _139
REMARK   56  A    between atoms: _138  and  _141
REMARK   57  A    between atoms: _141  and  _142
REMARK   58  A    between atoms: _148  and  _150
REMARK   59  A    between atoms: _150  and  _151
REMARK   60  A    between atoms: _150  and  _153
REMARK   61  A    between atoms: _153  and  _154
REMARK   62  A    between atoms: _159  and  _160
REMARK   63  A    between atoms: _162  and  _164
REMARK   64  A    between atoms: _164  and  _165
REMARK   65  A    between atoms: _164  and  _167
REMARK   66  A    between atoms: _167  and  _168
REMARK   67  A    between atoms: _168  and  _169
REMARK   68  A    between atoms: _171  and  _173
REMARK   69  A    between atoms: _173  and  _174
REMARK   70  A    between atoms: _173  and  _176
REMARK   71  A    between atoms: _176  and  _177
REMARK   72  A    between atoms: _177  and  _178
REMARK   73  A    between atoms: _181  and  _183
REMARK   74  A    between atoms: _183  and  _184
REMARK   75  A    between atoms: _183  and  _186
REMARK   76  A    between atoms: _186  and  _187
REMARK   77  A    between atoms: _192  and  _193
REMARK   78  A    between atoms: _195  and  _197
REMARK   79  A    between atoms: _197  and  _198
REMARK   80  A    between atoms: _197  and  _200
REMARK   81  A    between atoms: _200  and  _201
REMARK   82  A    between atoms: _201  and  _202
REMARK   83  A    between atoms: _202  and  _203
REMARK   84  A    between atoms: _212  and  _214
REMARK   85  A    between atoms: _214  and  _215
REMARK   86  A    between atoms: _214  and  _217
REMARK   87  A    between atoms: _217  and  _218
REMARK   88  A    between atoms: _218  and  _219
REMARK   89  A    between atoms: _222  and  _224
REMARK   90  A    between atoms: _224  and  _225
REMARK   91  A    between atoms: _224  and  _227
REMARK   92  A    between atoms: _227  and  _228
REMARK   93  A    between atoms: _228  and  _229
REMARK   94  A    between atoms: _234  and  _236
REMARK   95  A    between atoms: _236  and  _237
REMARK   96  A    between atoms: _236  and  _239
REMARK   97  A    between atoms: _239  and  _240
REMARK   98  A    between atoms: _240  and  _241
REMARK   99  A    between atoms: _241  and  _242
REMARK  100  A    between atoms: _242  and  _243
REMARK  101  A    between atoms: _247  and  _249
REMARK  102  A    between atoms: _249  and  _250
REMARK  103  A    between atoms: _253  and  _255
REMARK  104  A    between atoms: _255  and  _256
REMARK  105  A    between atoms: _255  and  _258
REMARK  106  A    between atoms: _258  and  _259
REMARK  107  A    between atoms: _259  and  _260
REMARK  108  A    between atoms: _260  and  _261
REMARK  109  A    between atoms: _261  and  _262
REMARK  110  A    between atoms: _266  and  _268
REMARK  111  A    between atoms: _268  and  _269
REMARK  112  A    between atoms: _271  and  _273
REMARK  113  A    between atoms: _273  and  _274
REMARK  114  A    between atoms: _273  and  _276
REMARK  115  A    between atoms: _276  and  _277
REMARK  116  A    between atoms: _282  and  _284
REMARK  117  A    between atoms: _284  and  _285
REMARK  118  A    between atoms: _284  and  _287
REMARK  119  A    between atoms: _287  and  _288
REMARK  120  A    between atoms: _288  and  _289
REMARK  121  A    between atoms: _292  and  _294
REMARK  122  A    between atoms: _294  and  _295
REMARK  123  A    between atoms: _294  and  _297
REMARK  124  A    between atoms: _297  and  _298
REMARK  125  A    between atoms: _298  and  _299
REMARK  126  A    between atoms: _304  and  _306
REMARK  127  A    between atoms: _306  and  _307
REMARK  128  A    between atoms: _306  and  _309
REMARK  129  A    between atoms: _309  and  _310
REMARK  130  A    between atoms: _312  and  _314
REMARK  131  A    between atoms: _314  and  _315
REMARK  132  A    between atoms: _314  and  _317
REMARK  133  A    between atoms: _317  and  _318
REMARK  134  A    between atoms: _324  and  _326
REMARK  135  A    between atoms: _326  and  _327
REMARK  136  A    between atoms: _326  and  _329
REMARK  137  A    between atoms: _329  and  _330
REMARK  138  A    between atoms: _330  and  _331
REMARK  139  A    between atoms: _331  and  _332
REMARK  140  A    between atoms: _341  and  _343
REMARK  141  A    between atoms: _343  and  _344
REMARK  142  A    between atoms: _343  and  _346
REMARK  143  A    between atoms: _349  and  _351
REMARK  144  A    between atoms: _351  and  _352
REMARK  145  A    between atoms: _351  and  _354
REMARK  146  A    between atoms: _354  and  _355
REMARK  147  A    between atoms: _358  and  _360
REMARK  148  A    between atoms: _360  and  _361
REMARK  149  A    between atoms: _360  and  _363
REMARK  150  A    between atoms: _363  and  _364
REMARK  151  A    between atoms: _367  and  _369
REMARK  152  A    between atoms: _369  and  _370
REMARK  153  A    between atoms: _369  and  _372
REMARK  154  A    between atoms: _372  and  _373
REMARK  155  A    between atoms: _373  and  _374
REMARK  156  A    between atoms: _374  and  _375
REMARK  157  A    between atoms: _384  and  _386
REMARK  158  A    between atoms: _386  and  _387
REMARK  159  A    between atoms: _386  and  _389
REMARK  160  A    between atoms: _389  and  _390
REMARK  161  A    between atoms: _393  and  _395
REMARK  162  A    between atoms: _395  and  _396
REMARK  163  A    between atoms: _395  and  _398
REMARK  164  A    between atoms: _398  and  _399
REMARK  165  A    between atoms: _402  and  _404
REMARK  166  A    between atoms: _404  and  _405
REMARK  167  A    between atoms: _404  and  _407
REMARK  168  A    between atoms: _407  and  _408
REMARK  169  A    between atoms: _411  and  _413
REMARK  170  A    between atoms: _413  and  _414
REMARK  171  A    between atoms: _413  and  _416
REMARK  172  A    between atoms: _416  and  _417
REMARK  173  A    between atoms: _422  and  _423
REMARK  174  A    between atoms: _425  and  _427
REMARK  175  A    between atoms: _427  and  _428
REMARK  176  A    between atoms: _427  and  _430
REMARK  177  A    between atoms: _430  and  _431
REMARK  178  A    between atoms: _436  and  _437
REMARK  179  A    between atoms: _439  and  _441
REMARK  180  A    between atoms: _441  and  _442
REMARK  181  A    between atoms: _441  and  _444
REMARK  182  A    between atoms: _444  and  _445
REMARK  183  A    between atoms: _448  and  _450
REMARK  184  A    between atoms: _450  and  _451
REMARK  185  A    between atoms: _450  and  _453
REMARK  186  A    between atoms: _456  and  _458
REMARK  187  A    between atoms: _458  and  _459
REMARK  188  A    between atoms: _458  and  _461
REMARK  189  A    between atoms: _461  and  _462
REMARK  190  A    between atoms: _465  and  _467
REMARK  191  A    between atoms: _467  and  _468
REMARK  192  A    between atoms: _467  and  _470
REMARK  193  A    between atoms: _470  and  _471
REMARK  194  A    between atoms: _473  and  _475
REMARK  195  A    between atoms: _475  and  _476
REMARK  196  A    between atoms: _478  and  _480
REMARK  197  A    between atoms: _480  and  _481
REMARK  198  A    between atoms: _480  and  _483
REMARK  199  A    between atoms: _483  and  _484
REMARK  200  A    between atoms: _489  and  _490
REMARK  201  A    between atoms: _492  and  _494
REMARK  202  A    between atoms: _494  and  _495
REMARK  203  A    between atoms: _494  and  _497
REMARK  204  A    between atoms: _497  and  _498
REMARK  205  A    between atoms: _498  and  _499
REMARK  206  A    between atoms: _504  and  _506
REMARK  207  A    between atoms: _506  and  _507
REMARK  208  A    between atoms: _506  and  _509
REMARK  209  A    between atoms: _509  and  _510
REMARK  210  A    between atoms: _510  and  _511
REMARK  211  A    between atoms: _516  and  _518
REMARK  212  A    between atoms: _518  and  _519
REMARK  213  A    between atoms: _518  and  _521
REMARK  214  A    between atoms: _521  and  _522
REMARK  215  A    between atoms: _527  and  _528
REMARK  216  A    between atoms: _530  and  _532
REMARK  217  A    between atoms: _532  and  _533
REMARK  218  A    between atoms: _532  and  _535
REMARK  219  A    between atoms: _535  and  _536
REMARK  220  A    between atoms: _541  and  _542
REMARK  221  A    between atoms: _544  and  _546
REMARK  222  A    between atoms: _546  and  _547
REMARK  223  A    between atoms: _546  and  _549
REMARK  224  A    between atoms: _549  and  _550
REMARK  225  A    between atoms: _555  and  _556
REMARK  226  A    between atoms: _558  and  _560
REMARK  227  A    between atoms: _560  and  _561
REMARK  228  A    between atoms: _560  and  _563
REMARK  229  A    between atoms: _563  and  _564
REMARK  230  A    between atoms: _567  and  _569
REMARK  231  A    between atoms: _569  and  _570
REMARK  232  A    between atoms: _569  and  _572
REMARK  233  A    between atoms: _572  and  _573
REMARK  234  A    between atoms: _583  and  _585
REMARK  235  A    between atoms: _585  and  _586
REMARK  236  A    between atoms: _589  and  _591
REMARK  237  A    between atoms: _591  and  _592
REMARK  238  A    between atoms: _595  and  _597
REMARK  239  A    between atoms: _597  and  _598
REMARK  240  A    between atoms: _597  and  _600
REMARK  241  A    between atoms: _600  and  _601
REMARK  242  A    between atoms: _604  and  _606
REMARK  243  A    between atoms: _606  and  _607
REMARK  244  A    between atoms: _606  and  _609
REMARK  245  A    between atoms: _609  and  _610
REMARK  246  A    between atoms: _613  and  _615
REMARK  247  A    between atoms: _615  and  _616
REMARK  248  A    between atoms: _615  and  _618
REMARK  249  A    between atoms: _618  and  _619
REMARK  250  A    between atoms: _622  and  _624
REMARK  251  A    between atoms: _624  and  _625
REMARK  252  A    between atoms: _624  and  _627
REMARK  253  A    between atoms: _627  and  _628
REMARK  254  A    between atoms: _628  and  _629
REMARK  255  A    between atoms: _629  and  _630
REMARK  256  A    between atoms: _630  and  _631
REMARK  257  A    between atoms: _635  and  _637
REMARK  258  A    between atoms: _637  and  _638
REMARK  259  A    between atoms: _637  and  _640
REMARK  260  A    between atoms: _640  and  _641
REMARK  261  A    between atoms: _646  and  _648
REMARK  262  A    between atoms: _648  and  _649
REMARK  263  A    between atoms: _648  and  _651
REMARK  264  A    between atoms: _651  and  _652
REMARK  265  A    between atoms: _652  and  _653
REMARK  266  A    between atoms: _653  and  _654
REMARK  267  A    between atoms: _654  and  _655
REMARK  268  A    between atoms: _659  and  _661
REMARK  269  A    between atoms: _661  and  _662
REMARK  270  A    between atoms: _661  and  _664
REMARK  271  A    between atoms: _664  and  _665
REMARK  272  A    between atoms: _675  and  _677
REMARK  273  A    between atoms: _677  and  _678
REMARK  274  A    between atoms: _681  and  _683
REMARK  275  A    between atoms: _683  and  _684
REMARK  276  A    between atoms: _686  and  _688
REMARK  277  A    between atoms: _688  and  _689
REMARK  278  A    between atoms: _688  and  _691
REMARK  279  A    between atoms: _691  and  _692
REMARK  280  A    between atoms: _692  and  _693
REMARK  281  A    between atoms: _696  and  _698
REMARK  282  A    between atoms: _698  and  _699
REMARK  283  A    between atoms: _702  and  _704
REMARK  284  A    between atoms: _704  and  _705
REMARK  285  A    between atoms: _704  and  _707
REMARK  286  A    between atoms: _707  and  _708
REMARK  287  A    between atoms: _708  and  _709
REMARK  288  A    between atoms: _712  and  _714
REMARK  289  A    between atoms: _714  and  _715
REMARK  290  A    between atoms: _714  and  _717
REMARK  291  A    between atoms: _717  and  _718
REMARK  292  A    between atoms: _718  and  _719
REMARK  293  A    between atoms: _719  and  _720
REMARK  294  A    between atoms: _729  and  _731
REMARK  295  A    between atoms: _731  and  _732
REMARK  296  A    between atoms: _731  and  _734
REMARK  297  A    between atoms: _734  and  _735
REMARK  298  A    between atoms: _738  and  _740
REMARK  299  A    between atoms: _740  and  _741
REMARK  300  A    between atoms: _740  and  _743
REMARK  301  A    between atoms: _743  and  _744
REMARK  302  A    between atoms: _744  and  _745
REMARK  303  A    between atoms: _745  and  _746
REMARK  304  A    between atoms: _755  and  _757
REMARK  305  A    between atoms: _757  and  _758
REMARK  306  A    between atoms: _761  and  _763
REMARK  307  A    between atoms: _763  and  _764
REMARK  308  A    between atoms: _763  and  _766
REMARK  309  A    between atoms: _766  and  _767
REMARK  310  A    between atoms: _772  and  _773
REMARK  311  A    between atoms: _775  and  _777
REMARK  312  A    between atoms: _777  and  _778
REMARK  313  A    between atoms: _777  and  _780
REMARK  314  A    between atoms: _780  and  _781
REMARK  315  A    between atoms: _784  and  _786
REMARK  316  A    between atoms: _786  and  _787
REMARK  317  A    between atoms: _786  and  _789
REMARK  318  A    between atoms: _789  and  _790
REMARK  319  A    between atoms: _793  and  _795
REMARK  320  A    between atoms: _795  and  _796
REMARK  321  A    between atoms: _795  and  _798
REMARK  322  A    between atoms: _800  and  _802
REMARK  323  A    between atoms: _802  and  _803
REMARK  324  A    between atoms: _802  and  _805
REMARK  325  A    between atoms: _808  and  _810
REMARK  326  A    between atoms: _810  and  _811
REMARK  327  A    between atoms: _810  and  _813
REMARK  328  A    between atoms: _813  and  _814
REMARK  329  A    between atoms: _814  and  _815
REMARK  330  A    between atoms: _818  and  _820
REMARK  331  A    between atoms: _820  and  _821
REMARK  332  A    between atoms: _820  and  _823
REMARK  333  A    between atoms: _823  and  _824
REMARK  334  A    between atoms: _834  and  _836
REMARK  335  A    between atoms: _836  and  _837
REMARK  336  A    between atoms: _836  and  _839
REMARK  337  A    between atoms: _839  and  _840
REMARK  338  A    between atoms: _843  and  _845
REMARK  339  A    between atoms: _845  and  _846
REMARK  340  A    between atoms: _845  and  _848
REMARK  341  A    between atoms: _848  and  _849
REMARK  342  A    between atoms: _849  and  _850
REMARK  343  A    between atoms: _850  and  _851
REMARK  344  A    between atoms: _860  and  _862
REMARK  345  A    between atoms: _862  and  _863
REMARK  346  A    between atoms: _862  and  _865
REMARK  347  A    between atoms: _865  and  _866
REMARK  348  A    between atoms: _871  and  _872
REMARK  349  A    between atoms: _874  and  _876
REMARK  350  A    between atoms: _876  and  _877
REMARK  351  A    between atoms: _876  and  _879
REMARK  352  A    between atoms: _879  and  _880
REMARK  353  A    between atoms: _880  and  _881
REMARK  354  A    between atoms: _886  and  _888
REMARK  355  A    between atoms: _888  and  _889
REMARK  356  A    between atoms: _888  and  _891
REMARK  357  A    between atoms: _891  and  _892
REMARK  358  A    between atoms: _895  and  _897
REMARK  359  A    between atoms: _897  and  _898
REMARK  360  A    between atoms: _897  and  _900
REMARK  361  A    between atoms: _900  and  _901
REMARK  362  A    between atoms: _903  and  _905
REMARK  363  A    between atoms: _905  and  _906
REMARK  364  A    between atoms: _905  and  _908
REMARK  365  A    between atoms: _908  and  _909
REMARK  366  A    between atoms: _911  and  _913
REMARK  367  A    between atoms: _913  and  _914
REMARK  368  A    between atoms: _913  and  _916
REMARK  369  A    between atoms: _916  and  _917
REMARK  370  A    between atoms: _923  and  _925
REMARK  371  A    between atoms: _925  and  _926
REMARK  372  A    between atoms: _925  and  _928
REMARK  373  A    between atoms: _928  and  _929
REMARK  374  A    between atoms: _929  and  _930
REMARK  375  A    between atoms: _930  and  _931
REMARK  376  A    between atoms: _940  and  _942
REMARK  377  A    between atoms: _942  and  _943
REMARK  378  A    between atoms: _942  and  _945
REMARK  379  A    between atoms: _945  and  _946
REMARK  380  A    between atoms: _946  and  _947
REMARK  381  A    between atoms: _947  and  _948
REMARK  382  A    between atoms: _957  and  _959
REMARK  383  A    between atoms: _959  and  _960
REMARK  384  A    between atoms: _962  and  _964
REMARK  385  A    between atoms: _964  and  _965
REMARK  386  A    between atoms: _964  and  _967
REMARK  387  A    between atoms: _967  and  _968
REMARK  388  A    between atoms: _974  and  _975
REMARK  389  A    between atoms: _980  and  _982
REMARK  390  A    between atoms: _982  and  _983
REMARK  391  A    between atoms: _982  and  _985
REMARK  392  A    between atoms: _985  and  _986
REMARK  393  A    between atoms: _996  and  _998
REMARK  394  A    between atoms: _998  and  _999
REMARK  395  A    between atoms: _998  and  _1001
REMARK  396  A    between atoms: _1001  and  _1002
REMARK  397  A    between atoms: _1002  and  _1003
REMARK  398  A    between atoms: _1003  and  _1004
REMARK  399  A    between atoms: _1013  and  _1015
REMARK  400  A    between atoms: _1015  and  _1016
REMARK  401  A    between atoms: _1015  and  _1018
REMARK  402  A    between atoms: _1018  and  _1019
REMARK  403  A    between atoms: _1021  and  _1023
REMARK  404  A    between atoms: _1023  and  _1024
REMARK  405  A    between atoms: _1027  and  _1029
REMARK  406  A    between atoms: _1029  and  _1030
REMARK  407  A    between atoms: _1029  and  _1032
REMARK  408  A    between atoms: _1032  and  _1033
REMARK  409  A    between atoms: _1036  and  _1038
REMARK  410  A    between atoms: _1038  and  _1039
REMARK  411  A    between atoms: _1038  and  _1041
REMARK  412  A    between atoms: _1041  and  _1042
REMARK  413  A    between atoms: _1042  and  _1043
REMARK  414  A    between atoms: _1043  and  _1044
REMARK  415  A    between atoms: _1053  and  _1055
REMARK  416  A    between atoms: _1055  and  _1056
REMARK  417  A    between atoms: _1055  and  _1058
REMARK  418  A    between atoms: _1061  and  _1063
REMARK  419  A    between atoms: _1063  and  _1064
REMARK  420  A    between atoms: _1066  and  _1068
REMARK  421  A    between atoms: _1068  and  _1069
REMARK  422  A    between atoms: _1068  and  _1071
REMARK  423  A    between atoms: _1071  and  _1072
REMARK                            x       y       z     vdW  Elec       q    Type
REMARK                         _______ _______ _______ _____ _____    ______ ____
ROOT
ATOM      1  O   HOH     1      10.805  31.636  56.132  0.00  0.00    +0.000 OA
ENDROOT
TORSDOF 0
REMARK  Name = ../refined-set-2016/1fo0/1fo0_pocket.pdb
REMARK  423 active torsions:
REMARK  status: ('A' for Active; 'I' for Inactive)
REMARK    1  A    between atoms: _1  and  _3
REMARK    2  A    between atoms: _3  and  _4
REMARK    3  A    between atoms: _3  and  _6
REMARK    4  A    between atoms: _6  and  _7
REMARK    5  A    between atoms: _10  and  _12
REMARK    6  A    between atoms: _12  and  _13
REMARK    7  A    between atoms: _12  and  _15
REMARK    8  A    between atoms: _15  and  _16
REMARK    9  A    between atoms: _16  and  _17
REMARK   10  A    between atoms: _17  and  _18
REMARK   11  A    between atoms: _27  and  _29
REMARK   12  A    between atoms: _29  and  _30
REMARK   13  A    between atoms: _29  and  _32
REMARK   14  A    between atoms: _32  and  _33
REMARK   15  A    between atoms: _38  and  _39
REMARK   16  A    between atoms: _41  and  _43
REMARK   17  A    between atoms: _43  and  _44
REMARK   18  A    between atoms: _43  and  _46
REMARK   19  A    between atoms: _46  and  _47
REMARK   20  A    between atoms: _53  and  _55
REMARK   21  A    between atoms: _55  and  _56
REMARK   22  A    between atoms: _55  and  _58
REMARK   23  A    between atoms: _61  and  _63
REMARK   24  A    between atoms: _63  and  _64
REMARK   25  A    between atoms: _63  and  _66
REMARK   26  A    between atoms: _66  and  _67
REMARK   27  A    between atoms: _70  and  _72
REMARK   28  A    between atoms: _72  and  _73
REMARK   29  A    between atoms: _72  and  _75
REMARK   30  A    between atoms: _75  and  _76
REMARK   31  A    between atoms: _81  and  _82
REMARK   32  A    between atoms: _84  and  _86
REMARK   33  A    between atoms: _86  and  _87
REMARK   34  A    between atoms: _86  and  _89
REMARK   35  A    between atoms: _89  and  _90
REMARK   36  A    between atoms: _90  and  _91
REMARK   37  A    between atoms: _93  and  _95
REMARK   38  A    between atoms: _95  and  _96
REMARK   39  A    between atoms: _95  and  _98
REMARK   40  A    between atoms: _98  and  _99
REMARK   41  A    between atoms: _99  and  _100
REMARK   42  A    between atoms: _103  and  _105
REMARK   43  A    between atoms: _105  and  _106
REMARK   44  A    between atoms: _105  and  _108
REMARK   45  A    between atoms: _111  and  _113
REMARK   46  A    between atoms: _113  and  _114
REMARK   47  A    between atoms: _116  and  _118
REMARK   48  A    between atoms: _118  and  _119
REMARK   49  A    between atoms: _118  and  _121
REMARK   50  A    between atoms: _121  and  _122
REMARK   51  A    between atoms: _128  and  _130
REMARK   52  A    between atoms: _130  and  _131
REMARK   53  A    between atoms: _130  and  _133
REMARK   54  A    between atoms: _136  and  _138
REMARK   55  A    between atoms: _138  and  _139
REMARK   56  A    between atoms: _138  and  _141
REMARK   57  A    between atoms: _141  and  _142
REMARK   58  A    between atoms: _148  and  _150
REMARK   59  A    between atoms: _150  and  _151
REMARK   60  A    between atoms: _150  and  _153
REMARK   61  A    between atoms: _153  and  _154
REMARK   62  A    between atoms: _159  and  _160
REMARK   63  A    between atoms: _162  and  _164
REMARK   64  A    between atoms: _164  and  _165
REMARK   65  A    between atoms: _164  and  _167
REMARK   66  A    between atoms: _167  and  _168
REMARK   67  A    between atoms: _168  and  _169
REMARK   68  A    between atoms: _171  and  _173
REMARK   69  A    between atoms: _173  and  _174
REMARK   70  A    between atoms: _173  and  _176
REMARK   71  A    between atoms: _176  and  _177
REMARK   72  A    between atoms: _177  and  _178
REMARK   73  A    between atoms: _181  and  _183
REMARK   74  A    between atoms: _183  and  _184
REMARK   75  A    between atoms: _183  and  _186
REMARK   76  A    between atoms: _186  and  _187
REMARK   77  A    between atoms: _192  and  _193
REMARK   78  A    between atoms: _195  and  _197
REMARK   79  A    between atoms: _197  and  _198
REMARK   80  A    between atoms: _197  and  _200
REMARK   81  A    between atoms: _200  and  _201
REMARK   82  A    between atoms: _201  and  _202
REMARK   83  A    between atoms: _202  and  _203
REMARK   84  A    between atoms: _212  and  _214
REMARK   85  A    between atoms: _214  and  _215
REMARK   86  A    between atoms: _214  and  _217
REMARK   87  A    between atoms: _217  and  _218
REMARK   88  A    between atoms: _218  and  _219
REMARK   89  A    between atoms: _222  and  _224
REMARK   90  A    between atoms: _224  and  _225
REMARK   91  A    between atoms: _224  and  _227
REMARK   92  A    between atoms: _227  and  _228
REMARK   93  A    between atoms: _228  and  _229
REMARK   94  A    between atoms: _234  and  _236
REMARK   95  A    between atoms: _236  and  _237
REMARK   96  A    between atoms: _236  and  _239
REMARK   97  A    between atoms: _239  and  _240
REMARK   98  A    between atoms: _240  and  _241
REMARK   99  A    between atoms: _241  and  _242
REMARK  100  A    between atoms: _242  and  _243
REMARK  101  A    between atoms: _247  and  _249
REMARK  102  A    between atoms: _249  and  _250
REMARK  103  A    between atoms: _253  and  _255
REMARK  104  A    between atoms: _255  and  _256
REMARK  105  A    between atoms: _255  and  _258
REMARK  106  A    between atoms: _258  and  _259
REMARK  107  A    between atoms: _259  and  _260
REMARK  108  A    between atoms: _260  and  _261
REMARK  109  A    between atoms: _261  and  _262
REMARK  110  A    between atoms: _266  and  _268
REMARK  111  A    between atoms: _268  and  _269
REMARK  112  A    between atoms: _271  and  _273
REMARK  113  A    between atoms: _273  and  _274
REMARK  114  A    between atoms: _273  and  _276
REMARK  115  A    between atoms: _276  and  _277
REMARK  116  A    between atoms: _282  and  _284
REMARK  117  A    between atoms: _284  and  _285
REMARK  118  A    between atoms: _284  and  _287
REMARK  119  A    between atoms: _287  and  _288
REMARK  120  A    between atoms: _288  and  _289
REMARK  121  A    between atoms: _292  and  _294
REMARK  122  A    between atoms: _294  and  _295
REMARK  123  A    between atoms: _294  and  _297
REMARK  124  A    between atoms: _297  and  _298
REMARK  125  A    between atoms: _298  and  _299
REMARK  126  A    between atoms: _304  and  _306
REMARK  127  A    between atoms: _306  and  _307
REMARK  128  A    between atoms: _306  and  _309
REMARK  129  A    between atoms: _309  and  _310
REMARK  130  A    between atoms: _312  and  _314
REMARK  131  A    between atoms: _314  and  _315
REMARK  132  A    between atoms: _314  and  _317
REMARK  133  A    between atoms: _317  and  _318
REMARK  134  A    between atoms: _324  and  _326
REMARK  135  A    between atoms: _326  and  _327
REMARK  136  A    between atoms: _326  and  _329
REMARK  137  A    between atoms: _329  and  _330
REMARK  138  A    between atoms: _330  and  _331
REMARK  139  A    between atoms: _331  and  _332
REMARK  140  A    between atoms: _341  and  _343
REMARK  141  A    between atoms: _343  and  _344
REMARK  142  A    between atoms: _343  and  _346
REMARK  143  A    between atoms: _349  and  _351
REMARK  144  A    between atoms: _351  and  _352
REMARK  145  A    between atoms: _351  and  _354
REMARK  146  A    between atoms: _354  and  _355
REMARK  147  A    between atoms: _358  and  _360
REMARK  148  A    between atoms: _360  and  _361
REMARK  149  A    between atoms: _360  and  _363
REMARK  150  A    between atoms: _363  and  _364
REMARK  151  A    between atoms: _367  and  _369
REMARK  152  A    between atoms: _369  and  _370
REMARK  153  A    between atoms: _369  and  _372
REMARK  154  A    between atoms: _372  and  _373
REMARK  155  A    between atoms: _373  and  _374
REMARK  156  A    between atoms: _374  and  _375
REMARK  157  A    between atoms: _384  and  _386
REMARK  158  A    between atoms: _386  and  _387
REMARK  159  A    between atoms: _386  and  _389
REMARK  160  A    between atoms: _389  and  _390
REMARK  161  A    between atoms: _393  and  _395
REMARK  162  A    between atoms: _395  and  _396
REMARK  163  A    between atoms: _395  and  _398
REMARK  164  A    between atoms: _398  and  _399
REMARK  165  A    between atoms: _402  and  _404
REMARK  166  A    between atoms: _404  and  _405
REMARK  167  A    between atoms: _404  and  _407
REMARK  168  A    between atoms: _407  and  _408
REMARK  169  A    between atoms: _411  and  _413
REMARK  170  A    between atoms: _413  and  _414
REMARK  171  A    between atoms: _413  and  _416
REMARK  172  A    between atoms: _416  and  _417
REMARK  173  A    between atoms: _422  and  _423
REMARK  174  A    between atoms: _425  and  _427
REMARK  175  A    between atoms: _427  and  _428
REMARK  176  A    between atoms: _427  and  _430
REMARK  177  A    between atoms: _430  and  _431
REMARK  178  A    between atoms: _436  and  _437
REMARK  179  A    between atoms: _439  and  _441
REMARK  180  A    between atoms: _441  and  _442
REMARK  181  A    between atoms: _441  and  _444
REMARK  182  A    between atoms: _444  and  _445
REMARK  183  A    between atoms: _448  and  _450
REMARK  184  A    between atoms: _450  and  _451
REMARK  185  A    between atoms: _450  and  _453
REMARK  186  A    between atoms: _456  and  _458
REMARK  187  A    between atoms: _458  and  _459
REMARK  188  A    between atoms: _458  and  _461
REMARK  189  A    between atoms: _461  and  _462
REMARK  190  A    between atoms: _465  and  _467
REMARK  191  A    between atoms: _467  and  _468
REMARK  192  A    between atoms: _467  and  _470
REMARK  193  A    between atoms: _470  and  _471
REMARK  194  A    between atoms: _473  and  _475
REMARK  195  A    between atoms: _475  and  _476
REMARK  196  A    between atoms: _478  and  _480
REMARK  197  A    between atoms: _480  and  _481
REMARK  198  A    between atoms: _480  and  _483
REMARK  199  A    between atoms: _483  and  _484
REMARK  200  A    between atoms: _489  and  _490
REMARK  201  A    between atoms: _492  and  _494
REMARK  202  A    between atoms: _494  and  _495
REMARK  203  A    between atoms: _494  and  _497
REMARK  204  A    between atoms: _497  and  _498
REMARK  205  A    between atoms: _498  and  _499
REMARK  206  A    between atoms: _504  and  _506
REMARK  207  A    between atoms: _506  and  _507
REMARK  208  A    between atoms: _506  and  _509
REMARK  209  A    between atoms: _509  and  _510
REMARK  210  A    between atoms: _510  and  _511
REMARK  211  A    between atoms: _516  and  _518
REMARK  212  A    between atoms: _518  and  _519
REMARK  213  A    between atoms: _518  and  _521
REMARK  214  A    between atoms: _521  and  _522
REMARK  215  A    between atoms: _527  and  _528
REMARK  216  A    between atoms: _530  and  _532
REMARK  217  A    between atoms: _532  and  _533
REMARK  218  A    between atoms: _532  and  _535
REMARK  219  A    between atoms: _535  and  _536
REMARK  220  A    between atoms: _541  and  _542
REMARK  221  A    between atoms: _544  and  _546
REMARK  222  A    between atoms: _546  and  _547
REMARK  223  A    between atoms: _546  and  _549
REMARK  224  A    between atoms: _549  and  _550
REMARK  225  A    between atoms: _555  and  _556
REMARK  226  A    between atoms: _558  and  _560
REMARK  227  A    between atoms: _560  and  _561
REMARK  228  A    between atoms: _560  and  _563
REMARK  229  A    between atoms: _563  and  _564
REMARK  230  A    between atoms: _567  and  _569
REMARK  231  A    between atoms: _569  and  _570
REMARK  232  A    between atoms: _569  and  _572
REMARK  233  A    between atoms: _572  and  _573
REMARK  234  A    between atoms: _583  and  _585
REMARK  235  A    between atoms: _585  and  _586
REMARK  236  A    between atoms: _589  and  _591
REMARK  237  A    between atoms: _591  and  _592
REMARK  238  A    between atoms: _595  and  _597
REMARK  239  A    between atoms: _597  and  _598
REMARK  240  A    between atoms: _597  and  _600
REMARK  241  A    between atoms: _600  and  _601
REMARK  242  A    between atoms: _604  and  _606
REMARK  243  A    between atoms: _606  and  _607
REMARK  244  A    between atoms: _606  and  _609
REMARK  245  A    between atoms: _609  and  _610
REMARK  246  A    between atoms: _613  and  _615
REMARK  247  A    between atoms: _615  and  _616
REMARK  248  A    between atoms: _615  and  _618
REMARK  249  A    between atoms: _618  and  _619
REMARK  250  A    between atoms: _622  and  _624
REMARK  251  A    between atoms: _624  and  _625
REMARK  252  A    between atoms: _624  and  _627
REMARK  253  A    between atoms: _627  and  _628
REMARK  254  A    between atoms: _628  and  _629
REMARK  255  A    between atoms: _629  and  _630
REMARK  256  A    between atoms: _630  and  _631
REMARK  257  A    between atoms: _635  and  _637
REMARK  258  A    between atoms: _637  and  _638
REMARK  259  A    between atoms: _637  and  _640
REMARK  260  A    between atoms: _640  and  _641
REMARK  261  A    between atoms: _646  and  _648
REMARK  262  A    between atoms: _648  and  _649
REMARK  263  A    between atoms: _648  and  _651
REMARK  264  A    between atoms: _651  and  _652
REMARK  265  A    between atoms: _652  and  _653
REMARK  266  A    between atoms: _653  and  _654
REMARK  267  A    between atoms: _654  and  _655
REMARK  268  A    between atoms: _659  and  _661
REMARK  269  A    between atoms: _661  and  _662
REMARK  270  A    between atoms: _661  and  _664
REMARK  271  A    between atoms: _664  and  _665
REMARK  272  A    between atoms: _675  and  _677
REMARK  273  A    between atoms: _677  and  _678
REMARK  274  A    between atoms: _681  and  _683
REMARK  275  A    between atoms: _683  and  _684
REMARK  276  A    between atoms: _686  and  _688
REMARK  277  A    between atoms: _688  and  _689
REMARK  278  A    between atoms: _688  and  _691
REMARK  279  A    between atoms: _691  and  _692
REMARK  280  A    between atoms: _692  and  _693
REMARK  281  A    between atoms: _696  and  _698
REMARK  282  A    between atoms: _698  and  _699
REMARK  283  A    between atoms: _702  and  _704
REMARK  284  A    between atoms: _704  and  _705
REMARK  285  A    between atoms: _704  and  _707
REMARK  286  A    between atoms: _707  and  _708
REMARK  287  A    between atoms: _708  and  _709
REMARK  288  A    between atoms: _712  and  _714
REMARK  289  A    between atoms: _714  and  _715
REMARK  290  A    between atoms: _714  and  _717
REMARK  291  A    between atoms: _717  and  _718
REMARK  292  A    between atoms: _718  and  _719
REMARK  293  A    between atoms: _719  and  _720
REMARK  294  A    between atoms: _729  and  _731
REMARK  295  A    between atoms: _731  and  _732
REMARK  296  A    between atoms: _731  and  _734
REMARK  297  A    between atoms: _734  and  _735
REMARK  298  A    between atoms: _738  and  _740
REMARK  299  A    between atoms: _740  and  _741
REMARK  300  A    between atoms: _740  and  _743
REMARK  301  A    between atoms: _743  and  _744
REMARK  302  A    between atoms: _744  and  _745
REMARK  303  A    between atoms: _745  and  _746
REMARK  304  A    between atoms: _755  and  _757
REMARK  305  A    between atoms: _757  and  _758
REMARK  306  A    between atoms: _761  and  _763
REMARK  307  A    between atoms: _763  and  _764
REMARK  308  A    between atoms: _763  and  _766
REMARK  309  A    between atoms: _766  and  _767
REMARK  310  A    between atoms: _772  and  _773
REMARK  311  A    between atoms: _775  and  _777
REMARK  312  A    between atoms: _777  and  _778
REMARK  313  A    between atoms: _777  and  _780
REMARK  314  A    between atoms: _780  and  _781
REMARK  315  A    between atoms: _784  and  _786
REMARK  316  A    between atoms: _786  and  _787
REMARK  317  A    between atoms: _786  and  _789
REMARK  318  A    between atoms: _789  and  _790
REMARK  319  A    between atoms: _793  and  _795
REMARK  320  A    between atoms: _795  and  _796
REMARK  321  A    between atoms: _795  and  _798
REMARK  322  A    between atoms: _800  and  _802
REMARK  323  A    between atoms: _802  and  _803
REMARK  324  A    between atoms: _802  and  _805
REMARK  325  A    between atoms: _808  and  _810
REMARK  326  A    between atoms: _810  and  _811
REMARK  327  A    between atoms: _810  and  _813
REMARK  328  A    between atoms: _813  and  _814
REMARK  329  A    between atoms: _814  and  _815
REMARK  330  A    between atoms: _818  and  _820
REMARK  331  A    between atoms: _820  and  _821
REMARK  332  A    between atoms: _820  and  _823
REMARK  333  A    between atoms: _823  and  _824
REMARK  334  A    between atoms: _834  and  _836
REMARK  335  A    between atoms: _836  and  _837
REMARK  336  A    between atoms: _836  and  _839
REMARK  337  A    between atoms: _839  and  _840
REMARK  338  A    between atoms: _843  and  _845
REMARK  339  A    between atoms: _845  and  _846
REMARK  340  A    between atoms: _845  and  _848
REMARK  341  A    between atoms: _848  and  _849
REMARK  342  A    between atoms: _849  and  _850
REMARK  343  A    between atoms: _850  and  _851
REMARK  344  A    between atoms: _860  and  _862
REMARK  345  A    between atoms: _862  and  _863
REMARK  346  A    between atoms: _862  and  _865
REMARK  347  A    between atoms: _865  and  _866
REMARK  348  A    between atoms: _871  and  _872
REMARK  349  A    between atoms: _874  and  _876
REMARK  350  A    between atoms: _876  and  _877
REMARK  351  A    between atoms: _876  and  _879
REMARK  352  A    between atoms: _879  and  _880
REMARK  353  A    between atoms: _880  and  _881
REMARK  354  A    between atoms: _886  and  _888
REMARK  355  A    between atoms: _888  and  _889
REMARK  356  A    between atoms: _888  and  _891
REMARK  357  A    between atoms: _891  and  _892
REMARK  358  A    between atoms: _895  and  _897
REMARK  359  A    between atoms: _897  and  _898
REMARK  360  A    between atoms: _897  and  _900
REMARK  361  A    between atoms: _900  and  _901
REMARK  362  A    between atoms: _903  and  _905
REMARK  363  A    between atoms: _905  and  _906
REMARK  364  A    between atoms: _905  and  _908
REMARK  365  A    between atoms: _908  and  _909
REMARK  366  A    between atoms: _911  and  _913
REMARK  367  A    between atoms: _913  and  _914
REMARK  368  A    between atoms: _913  and  _916
REMARK  369  A    between atoms: _916  and  _917
REMARK  370  A    between atoms: _923  and  _925
REMARK  371  A    between atoms: _925  and  _926
REMARK  372  A    between atoms: _925  and  _928
REMARK  373  A    between atoms: _928  and  _929
REMARK  374  A    between atoms: _929  and  _930
REMARK  375  A    between atoms: _930  and  _931
REMARK  376  A    between atoms: _940  and  _942
REMARK  377  A    between atoms: _942  and  _943
REMARK  378  A    between atoms: _942  and  _945
REMARK  379  A    between atoms: _945  and  _946
REMARK  380  A    between atoms: _946  and  _947
REMARK  381  A    between atoms: _947  and  _948
REMARK  382  A    between atoms: _957  and  _959
REMARK  383  A    between atoms: _959  and  _960
REMARK  384  A    between atoms: _962  and  _964
REMARK  385  A    between atoms: _964  and  _965
REMARK  386  A    between atoms: _964  and  _967
REMARK  387  A    between atoms: _967  and  _968
REMARK  388  A    between atoms: _974  and  _975
REMARK  389  A    between atoms: _980  and  _982
REMARK  390  A    between atoms: _982  and  _983
REMARK  391  A    between atoms: _982  and  _985
REMARK  392  A    between atoms: _985  and  _986
REMARK  393  A    between atoms: _996  and  _998
REMARK  394  A    between atoms: _998  and  _999
REMARK  395  A    between atoms: _998  and  _1001
REMARK  396  A    between atoms: _1001  and  _1002
REMARK  397  A    between atoms: _1002  and  _1003
REMARK  398  A    between atoms: _1003  and  _1004
REMARK  399  A    between atoms: _1013  and  _1015
REMARK  400  A    between atoms: _1015  and  _1016
REMARK  401  A    between atoms: _1015  and  _1018
REMARK  402  A    between atoms: _1018  and  _1019
REMARK  403  A    between atoms: _1021  and  _1023
REMARK  404  A    between atoms: _1023  and  _1024
REMARK  405  A    between atoms: _1027  and  _1029
REMARK  406  A    between atoms: _1029  and  _1030
REMARK  407  A    between atoms: _1029  and  _1032
REMARK  408  A    between atoms: _1032  and  _1033
REMARK  409  A    between atoms: _1036  and  _1038
REMARK  410  A    between atoms: _1038  and  _1039
REMARK  411  A    between atoms: _1038  and  _1041
REMARK  412  A    between atoms: _1041  and  _1042
REMARK  413  A    between atoms: _1042  and  _1043
REMARK  414  A    between atoms: _1043  and  _1044
REMARK  415  A    between atoms: _1053  and  _1055
REMARK  416  A    between atoms: _1055  and  _1056
REMARK  417  A    between atoms: _1055  and  _1058
REMARK  418  A    between atoms: _1061  and  _1063
REMARK  419  A    between atoms: _1063  and  _1064
REMARK  420  A    between atoms: _1066  and  _1068
REMARK  421  A    between atoms: _1068  and  _1069
REMARK  422  A    between atoms: _1068  and  _1071
REMARK  423  A    between atoms: _1071  and  _1072
REMARK                            x       y       z     vdW  Elec       q    Type
REMARK                         _______ _______ _______ _____ _____    ______ ____
ROOT
ATOM      1  O   HOH     1       7.246  26.387  57.947  0.00  0.00    +0.000 OA
ENDROOT
TORSDOF 0
REMARK  Name = ../refined-set-2016/1fo0/1fo0_pocket.pdb
REMARK  423 active torsions:
REMARK  status: ('A' for Active; 'I' for Inactive)
REMARK    1  A    between atoms: _1  and  _3
REMARK    2  A    between atoms: _3  and  _4
REMARK    3  A    between atoms: _3  and  _6
REMARK    4  A    between atoms: _6  and  _7
REMARK    5  A    between atoms: _10  and  _12
REMARK    6  A    between atoms: _12  and  _13
REMARK    7  A    between atoms: _12  and  _15
REMARK    8  A    between atoms: _15  and  _16
REMARK    9  A    between atoms: _16  and  _17
REMARK   10  A    between atoms: _17  and  _18
REMARK   11  A    between atoms: _27  and  _29
REMARK   12  A    between atoms: _29  and  _30
REMARK   13  A    between atoms: _29  and  _32
REMARK   14  A    between atoms: _32  and  _33
REMARK   15  A    between atoms: _38  and  _39
REMARK   16  A    between atoms: _41  and  _43
REMARK   17  A    between atoms: _43  and  _44
REMARK   18  A    between atoms: _43  and  _46
REMARK   19  A    between atoms: _46  and  _47
REMARK   20  A    between atoms: _53  and  _55
REMARK   21  A    between atoms: _55  and  _56
REMARK   22  A    between atoms: _55  and  _58
REMARK   23  A    between atoms: _61  and  _63
REMARK   24  A    between atoms: _63  and  _64
REMARK   25  A    between atoms: _63  and  _66
REMARK   26  A    between atoms: _66  and  _67
REMARK   27  A    between atoms: _70  and  _72
REMARK   28  A    between atoms: _72  and  _73
REMARK   29  A    between atoms: _72  and  _75
REMARK   30  A    between atoms: _75  and  _76
REMARK   31  A    between atoms: _81  and  _82
REMARK   32  A    between atoms: _84  and  _86
REMARK   33  A    between atoms: _86  and  _87
REMARK   34  A    between atoms: _86  and  _89
REMARK   35  A    between atoms: _89  and  _90
REMARK   36  A    between atoms: _90  and  _91
REMARK   37  A    between atoms: _93  and  _95
REMARK   38  A    between atoms: _95  and  _96
REMARK   39  A    between atoms: _95  and  _98
REMARK   40  A    between atoms: _98  and  _99
REMARK   41  A    between atoms: _99  and  _100
REMARK   42  A    between atoms: _103  and  _105
REMARK   43  A    between atoms: _105  and  _106
REMARK   44  A    between atoms: _105  and  _108
REMARK   45  A    between atoms: _111  and  _113
REMARK   46  A    between atoms: _113  and  _114
REMARK   47  A    between atoms: _116  and  _118
REMARK   48  A    between atoms: _118  and  _119
REMARK   49  A    between atoms: _118  and  _121
REMARK   50  A    between atoms: _121  and  _122
REMARK   51  A    between atoms: _128  and  _130
REMARK   52  A    between atoms: _130  and  _131
REMARK   53  A    between atoms: _130  and  _133
REMARK   54  A    between atoms: _136  and  _138
REMARK   55  A    between atoms: _138  and  _139
REMARK   56  A    between atoms: _138  and  _141
REMARK   57  A    between atoms: _141  and  _142
REMARK   58  A    between atoms: _148  and  _150
REMARK   59  A    between atoms: _150  and  _151
REMARK   60  A    between atoms: _150  and  _153
REMARK   61  A    between atoms: _153  and  _154
REMARK   62  A    between atoms: _159  and  _160
REMARK   63  A    between atoms: _162  and  _164
REMARK   64  A    between atoms: _164  and  _165
REMARK   65  A    between atoms: _164  and  _167
REMARK   66  A    between atoms: _167  and  _168
REMARK   67  A    between atoms: _168  and  _169
REMARK   68  A    between atoms: _171  and  _173
REMARK   69  A    between atoms: _173  and  _174
REMARK   70  A    between atoms: _173  and  _176
REMARK   71  A    between atoms: _176  and  _177
REMARK   72  A    between atoms: _177  and  _178
REMARK   73  A    between atoms: _181  and  _183
REMARK   74  A    between atoms: _183  and  _184
REMARK   75  A    between atoms: _183  and  _186
REMARK   76  A    between atoms: _186  and  _187
REMARK   77  A    between atoms: _192  and  _193
REMARK   78  A    between atoms: _195  and  _197
REMARK   79  A    between atoms: _197  and  _198
REMARK   80  A    between atoms: _197  and  _200
REMARK   81  A    between atoms: _200  and  _201
REMARK   82  A    between atoms: _201  and  _202
REMARK   83  A    between atoms: _202  and  _203
REMARK   84  A    between atoms: _212  and  _214
REMARK   85  A    between atoms: _214  and  _215
REMARK   86  A    between atoms: _214  and  _217
REMARK   87  A    between atoms: _217  and  _218
REMARK   88  A    between atoms: _218  and  _219
REMARK   89  A    between atoms: _222  and  _224
REMARK   90  A    between atoms: _224  and  _225
REMARK   91  A    between atoms: _224  and  _227
REMARK   92  A    between atoms: _227  and  _228
REMARK   93  A    between atoms: _228  and  _229
REMARK   94  A    between atoms: _234  and  _236
REMARK   95  A    between atoms: _236  and  _237
REMARK   96  A    between atoms: _236  and  _239
REMARK   97  A    between atoms: _239  and  _240
REMARK   98  A    between atoms: _240  and  _241
REMARK   99  A    between atoms: _241  and  _242
REMARK  100  A    between atoms: _242  and  _243
REMARK  101  A    between atoms: _247  and  _249
REMARK  102  A    between atoms: _249  and  _250
REMARK  103  A    between atoms: _253  and  _255
REMARK  104  A    between atoms: _255  and  _256
REMARK  105  A    between atoms: _255  and  _258
REMARK  106  A    between atoms: _258  and  _259
REMARK  107  A    between atoms: _259  and  _260
REMARK  108  A    between atoms: _260  and  _261
REMARK  109  A    between atoms: _261  and  _262
REMARK  110  A    between atoms: _266  and  _268
REMARK  111  A    between atoms: _268  and  _269
REMARK  112  A    between atoms: _271  and  _273
REMARK  113  A    between atoms: _273  and  _274
REMARK  114  A    between atoms: _273  and  _276
REMARK  115  A    between atoms: _276  and  _277
REMARK  116  A    between atoms: _282  and  _284
REMARK  117  A    between atoms: _284  and  _285
REMARK  118  A    between atoms: _284  and  _287
REMARK  119  A    between atoms: _287  and  _288
REMARK  120  A    between atoms: _288  and  _289
REMARK  121  A    between atoms: _292  and  _294
REMARK  122  A    between atoms: _294  and  _295
REMARK  123  A    between atoms: _294  and  _297
REMARK  124  A    between atoms: _297  and  _298
REMARK  125  A    between atoms: _298  and  _299
REMARK  126  A    between atoms: _304  and  _306
REMARK  127  A    between atoms: _306  and  _307
REMARK  128  A    between atoms: _306  and  _309
REMARK  129  A    between atoms: _309  and  _310
REMARK  130  A    between atoms: _312  and  _314
REMARK  131  A    between atoms: _314  and  _315
REMARK  132  A    between atoms: _314  and  _317
REMARK  133  A    between atoms: _317  and  _318
REMARK  134  A    between atoms: _324  and  _326
REMARK  135  A    between atoms: _326  and  _327
REMARK  136  A    between atoms: _326  and  _329
REMARK  137  A    between atoms: _329  and  _330
REMARK  138  A    between atoms: _330  and  _331
REMARK  139  A    between atoms: _331  and  _332
REMARK  140  A    between atoms: _341  and  _343
REMARK  141  A    between atoms: _343  and  _344
REMARK  142  A    between atoms: _343  and  _346
REMARK  143  A    between atoms: _349  and  _351
REMARK  144  A    between atoms: _351  and  _352
REMARK  145  A    between atoms: _351  and  _354
REMARK  146  A    between atoms: _354  and  _355
REMARK  147  A    between atoms: _358  and  _360
REMARK  148  A    between atoms: _360  and  _361
REMARK  149  A    between atoms: _360  and  _363
REMARK  150  A    between atoms: _363  and  _364
REMARK  151  A    between atoms: _367  and  _369
REMARK  152  A    between atoms: _369  and  _370
REMARK  153  A    between atoms: _369  and  _372
REMARK  154  A    between atoms: _372  and  _373
REMARK  155  A    between atoms: _373  and  _374
REMARK  156  A    between atoms: _374  and  _375
REMARK  157  A    between atoms: _384  and  _386
REMARK  158  A    between atoms: _386  and  _387
REMARK  159  A    between atoms: _386  and  _389
REMARK  160  A    between atoms: _389  and  _390
REMARK  161  A    between atoms: _393  and  _395
REMARK  162  A    between atoms: _395  and  _396
REMARK  163  A    between atoms: _395  and  _398
REMARK  164  A    between atoms: _398  and  _399
REMARK  165  A    between atoms: _402  and  _404
REMARK  166  A    between atoms: _404  and  _405
REMARK  167  A    between atoms: _404  and  _407
REMARK  168  A    between atoms: _407  and  _408
REMARK  169  A    between atoms: _411  and  _413
REMARK  170  A    between atoms: _413  and  _414
REMARK  171  A    between atoms: _413  and  _416
REMARK  172  A    between atoms: _416  and  _417
REMARK  173  A    between atoms: _422  and  _423
REMARK  174  A    between atoms: _425  and  _427
REMARK  175  A    between atoms: _427  and  _428
REMARK  176  A    between atoms: _427  and  _430
REMARK  177  A    between atoms: _430  and  _431
REMARK  178  A    between atoms: _436  and  _437
REMARK  179  A    between atoms: _439  and  _441
REMARK  180  A    between atoms: _441  and  _442
REMARK  181  A    between atoms: _441  and  _444
REMARK  182  A    between atoms: _444  and  _445
REMARK  183  A    between atoms: _448  and  _450
REMARK  184  A    between atoms: _450  and  _451
REMARK  185  A    between atoms: _450  and  _453
REMARK  186  A    between atoms: _456  and  _458
REMARK  187  A    between atoms: _458  and  _459
REMARK  188  A    between atoms: _458  and  _461
REMARK  189  A    between atoms: _461  and  _462
REMARK  190  A    between atoms: _465  and  _467
REMARK  191  A    between atoms: _467  and  _468
REMARK  192  A    between atoms: _467  and  _470
REMARK  193  A    between atoms: _470  and  _471
REMARK  194  A    between atoms: _473  and  _475
REMARK  195  A    between atoms: _475  and  _476
REMARK  196  A    between atoms: _478  and  _480
REMARK  197  A    between atoms: _480  and  _481
REMARK  198  A    between atoms: _480  and  _483
REMARK  199  A    between atoms: _483  and  _484
REMARK  200  A    between atoms: _489  and  _490
REMARK  201  A    between atoms: _492  and  _494
REMARK  202  A    between atoms: _494  and  _495
REMARK  203  A    between atoms: _494  and  _497
REMARK  204  A    between atoms: _497  and  _498
REMARK  205  A    between atoms: _498  and  _499
REMARK  206  A    between atoms: _504  and  _506
REMARK  207  A    between atoms: _506  and  _507
REMARK  208  A    between atoms: _506  and  _509
REMARK  209  A    between atoms: _509  and  _510
REMARK  210  A    between atoms: _510  and  _511
REMARK  211  A    between atoms: _516  and  _518
REMARK  212  A    between atoms: _518  and  _519
REMARK  213  A    between atoms: _518  and  _521
REMARK  214  A    between atoms: _521  and  _522
REMARK  215  A    between atoms: _527  and  _528
REMARK  216  A    between atoms: _530  and  _532
REMARK  217  A    between atoms: _532  and  _533
REMARK  218  A    between atoms: _532  and  _535
REMARK  219  A    between atoms: _535  and  _536
REMARK  220  A    between atoms: _541  and  _542
REMARK  221  A    between atoms: _544  and  _546
REMARK  222  A    between atoms: _546  and  _547
REMARK  223  A    between atoms: _546  and  _549
REMARK  224  A    between atoms: _549  and  _550
REMARK  225  A    between atoms: _555  and  _556
REMARK  226  A    between atoms: _558  and  _560
REMARK  227  A    between atoms: _560  and  _561
REMARK  228  A    between atoms: _560  and  _563
REMARK  229  A    between atoms: _563  and  _564
REMARK  230  A    between atoms: _567  and  _569
REMARK  231  A    between atoms: _569  and  _570
REMARK  232  A    between atoms: _569  and  _572
REMARK  233  A    between atoms: _572  and  _573
REMARK  234  A    between atoms: _583  and  _585
REMARK  235  A    between atoms: _585  and  _586
REMARK  236  A    between atoms: _589  and  _591
REMARK  237  A    between atoms: _591  and  _592
REMARK  238  A    between atoms: _595  and  _597
REMARK  239  A    between atoms: _597  and  _598
REMARK  240  A    between atoms: _597  and  _600
REMARK  241  A    between atoms: _600  and  _601
REMARK  242  A    between atoms: _604  and  _606
REMARK  243  A    between atoms: _606  and  _607
REMARK  244  A    between atoms: _606  and  _609
REMARK  245  A    between atoms: _609  and  _610
REMARK  246  A    between atoms: _613  and  _615
REMARK  247  A    between atoms: _615  and  _616
REMARK  248  A    between atoms: _615  and  _618
REMARK  249  A    between atoms: _618  and  _619
REMARK  250  A    between atoms: _622  and  _624
REMARK  251  A    between atoms: _624  and  _625
REMARK  252  A    between atoms: _624  and  _627
REMARK  253  A    between atoms: _627  and  _628
REMARK  254  A    between atoms: _628  and  _629
REMARK  255  A    between atoms: _629  and  _630
REMARK  256  A    between atoms: _630  and  _631
REMARK  257  A    between atoms: _635  and  _637
REMARK  258  A    between atoms: _637  and  _638
REMARK  259  A    between atoms: _637  and  _640
REMARK  260  A    between atoms: _640  and  _641
REMARK  261  A    between atoms: _646  and  _648
REMARK  262  A    between atoms: _648  and  _649
REMARK  263  A    between atoms: _648  and  _651
REMARK  264  A    between atoms: _651  and  _652
REMARK  265  A    between atoms: _652  and  _653
REMARK  266  A    between atoms: _653  and  _654
REMARK  267  A    between atoms: _654  and  _655
REMARK  268  A    between atoms: _659  and  _661
REMARK  269  A    between atoms: _661  and  _662
REMARK  270  A    between atoms: _661  and  _664
REMARK  271  A    between atoms: _664  and  _665
REMARK  272  A    between atoms: _675  and  _677
REMARK  273  A    between atoms: _677  and  _678
REMARK  274  A    between atoms: _681  and  _683
REMARK  275  A    between atoms: _683  and  _684
REMARK  276  A    between atoms: _686  and  _688
REMARK  277  A    between atoms: _688  and  _689
REMARK  278  A    between atoms: _688  and  _691
REMARK  279  A    between atoms: _691  and  _692
REMARK  280  A    between atoms: _692  and  _693
REMARK  281  A    between atoms: _696  and  _698
REMARK  282  A    between atoms: _698  and  _699
REMARK  283  A    between atoms: _702  and  _704
REMARK  284  A    between atoms: _704  and  _705
REMARK  285  A    between atoms: _704  and  _707
REMARK  286  A    between atoms: _707  and  _708
REMARK  287  A    between atoms: _708  and  _709
REMARK  288  A    between atoms: _712  and  _714
REMARK  289  A    between atoms: _714  and  _715
REMARK  290  A    between atoms: _714  and  _717
REMARK  291  A    between atoms: _717  and  _718
REMARK  292  A    between atoms: _718  and  _719
REMARK  293  A    between atoms: _719  and  _720
REMARK  294  A    between atoms: _729  and  _731
REMARK  295  A    between atoms: _731  and  _732
REMARK  296  A    between atoms: _731  and  _734
REMARK  297  A    between atoms: _734  and  _735
REMARK  298  A    between atoms: _738  and  _740
REMARK  299  A    between atoms: _740  and  _741
REMARK  300  A    between atoms: _740  and  _743
REMARK  301  A    between atoms: _743  and  _744
REMARK  302  A    between atoms: _744  and  _745
REMARK  303  A    between atoms: _745  and  _746
REMARK  304  A    between atoms: _755  and  _757
REMARK  305  A    between atoms: _757  and  _758
REMARK  306  A    between atoms: _761  and  _763
REMARK  307  A    between atoms: _763  and  _764
REMARK  308  A    between atoms: _763  and  _766
REMARK  309  A    between atoms: _766  and  _767
REMARK  310  A    between atoms: _772  and  _773
REMARK  311  A    between atoms: _775  and  _777
REMARK  312  A    between atoms: _777  and  _778
REMARK  313  A    between atoms: _777  and  _780
REMARK  314  A    between atoms: _780  and  _781
REMARK  315  A    between atoms: _784  and  _786
REMARK  316  A    between atoms: _786  and  _787
REMARK  317  A    between atoms: _786  and  _789
REMARK  318  A    between atoms: _789  and  _790
REMARK  319  A    between atoms: _793  and  _795
REMARK  320  A    between atoms: _795  and  _796
REMARK  321  A    between atoms: _795  and  _798
REMARK  322  A    between atoms: _800  and  _802
REMARK  323  A    between atoms: _802  and  _803
REMARK  324  A    between atoms: _802  and  _805
REMARK  325  A    between atoms: _808  and  _810
REMARK  326  A    between atoms: _810  and  _811
REMARK  327  A    between atoms: _810  and  _813
REMARK  328  A    between atoms: _813  and  _814
REMARK  329  A    between atoms: _814  and  _815
REMARK  330  A    between atoms: _818  and  _820
REMARK  331  A    between atoms: _820  and  _821
REMARK  332  A    between atoms: _820  and  _823
REMARK  333  A    between atoms: _823  and  _824
REMARK  334  A    between atoms: _834  and  _836
REMARK  335  A    between atoms: _836  and  _837
REMARK  336  A    between atoms: _836  and  _839
REMARK  337  A    between atoms: _839  and  _840
REMARK  338  A    between atoms: _843  and  _845
REMARK  339  A    between atoms: _845  and  _846
REMARK  340  A    between atoms: _845  and  _848
REMARK  341  A    between atoms: _848  and  _849
REMARK  342  A    between atoms: _849  and  _850
REMARK  343  A    between atoms: _850  and  _851
REMARK  344  A    between atoms: _860  and  _862
REMARK  345  A    between atoms: _862  and  _863
REMARK  346  A    between atoms: _862  and  _865
REMARK  347  A    between atoms: _865  and  _866
REMARK  348  A    between atoms: _871  and  _872
REMARK  349  A    between atoms: _874  and  _876
REMARK  350  A    between atoms: _876  and  _877
REMARK  351  A    between atoms: _876  and  _879
REMARK  352  A    between atoms: _879  and  _880
REMARK  353  A    between atoms: _880  and  _881
REMARK  354  A    between atoms: _886  and  _888
REMARK  355  A    between atoms: _888  and  _889
REMARK  356  A    between atoms: _888  and  _891
REMARK  357  A    between atoms: _891  and  _892
REMARK  358  A    between atoms: _895  and  _897
REMARK  359  A    between atoms: _897  and  _898
REMARK  360  A    between atoms: _897  and  _900
REMARK  361  A    between atoms: _900  and  _901
REMARK  362  A    between atoms: _903  and  _905
REMARK  363  A    between atoms: _905  and  _906
REMARK  364  A    between atoms: _905  and  _908
REMARK  365  A    between atoms: _908  and  _909
REMARK  366  A    between atoms: _911  and  _913
REMARK  367  A    between atoms: _913  and  _914
REMARK  368  A    between atoms: _913  and  _916
REMARK  369  A    between atoms: _916  and  _917
REMARK  370  A    between atoms: _923  and  _925
REMARK  371  A    between atoms: _925  and  _926
REMARK  372  A    between atoms: _925  and  _928
REMARK  373  A    between atoms: _928  and  _929
REMARK  374  A    between atoms: _929  and  _930
REMARK  375  A    between atoms: _930  and  _931
REMARK  376  A    between atoms: _940  and  _942
REMARK  377  A    between atoms: _942  and  _943
REMARK  378  A    between atoms: _942  and  _945
REMARK  379  A    between atoms: _945  and  _946
REMARK  380  A    between atoms: _946  and  _947
REMARK  381  A    between atoms: _947  and  _948
REMARK  382  A    between atoms: _957  and  _959
REMARK  383  A    between atoms: _959  and  _960
REMARK  384  A    between atoms: _962  and  _964
REMARK  385  A    between atoms: _964  and  _965
REMARK  386  A    between atoms: _964  and  _967
REMARK  387  A    between atoms: _967  and  _968
REMARK  388  A    between atoms: _974  and  _975
REMARK  389  A    between atoms: _980  and  _982
REMARK  390  A    between atoms: _982  and  _983
REMARK  391  A    between atoms: _982  and  _985
REMARK  392  A    between atoms: _985  and  _986
REMARK  393  A    between atoms: _996  and  _998
REMARK  394  A    between atoms: _998  and  _999
REMARK  395  A    between atoms: _998  and  _1001
REMARK  396  A    between atoms: _1001  and  _1002
REMARK  397  A    between atoms: _1002  and  _1003
REMARK  398  A    between atoms: _1003  and  _1004
REMARK  399  A    between atoms: _1013  and  _1015
REMARK  400  A    between atoms: _1015  and  _1016
REMARK  401  A    between atoms: _1015  and  _1018
REMARK  402  A    between atoms: _1018  and  _1019
REMARK  403  A    between atoms: _1021  and  _1023
REMARK  404  A    between atoms: _1023  and  _1024
REMARK  405  A    between atoms: _1027  and  _1029
REMARK  406  A    between atoms: _1029  and  _1030
REMARK  407  A    between atoms: _1029  and  _1032
REMARK  408  A    between atoms: _1032  and  _1033
REMARK  409  A    between atoms: _1036  and  _1038
REMARK  410  A    between atoms: _1038  and  _1039
REMARK  411  A    between atoms: _1038  and  _1041
REMARK  412  A    between atoms: _1041  and  _1042
REMARK  413  A    between atoms: _1042  and  _1043
REMARK  414  A    between atoms: _1043  and  _1044
REMARK  415  A    between atoms: _1053  and  _1055
REMARK  416  A    between atoms: _1055  and  _1056
REMARK  417  A    between atoms: _1055  and  _1058
REMARK  418  A    between atoms: _1061  and  _1063
REMARK  419  A    between atoms: _1063  and  _1064
REMARK  420  A    between atoms: _1066  and  _1068
REMARK  421  A    between atoms: _1068  and  _1069
REMARK  422  A    between atoms: _1068  and  _1071
REMARK  423  A    between atoms: _1071  and  _1072
REMARK                            x       y       z     vdW  Elec       q    Type
REMARK                         _______ _______ _______ _____ _____    ______ ____
ROOT
ATOM      1  O   HOH     1       9.744  30.435  58.144  0.00  0.00    +0.000 OA
ENDROOT
TORSDOF 0
REMARK  Name = ../refined-set-2016/1fo0/1fo0_pocket.pdb
REMARK  423 active torsions:
REMARK  status: ('A' for Active; 'I' for Inactive)
REMARK    1  A    between atoms: _1  and  _3
REMARK    2  A    between atoms: _3  and  _4
REMARK    3  A    between atoms: _3  and  _6
REMARK    4  A    between atoms: _6  and  _7
REMARK    5  A    between atoms: _10  and  _12
REMARK    6  A    between atoms: _12  and  _13
REMARK    7  A    between atoms: _12  and  _15
REMARK    8  A    between atoms: _15  and  _16
REMARK    9  A    between atoms: _16  and  _17
REMARK   10  A    between atoms: _17  and  _18
REMARK   11  A    between atoms: _27  and  _29
REMARK   12  A    between atoms: _29  and  _30
REMARK   13  A    between atoms: _29  and  _32
REMARK   14  A    between atoms: _32  and  _33
REMARK   15  A    between atoms: _38  and  _39
REMARK   16  A    between atoms: _41  and  _43
REMARK   17  A    between atoms: _43  and  _44
REMARK   18  A    between atoms: _43  and  _46
REMARK   19  A    between atoms: _46  and  _47
REMARK   20  A    between atoms: _53  and  _55
REMARK   21  A    between atoms: _55  and  _56
REMARK   22  A    between atoms: _55  and  _58
REMARK   23  A    between atoms: _61  and  _63
REMARK   24  A    between atoms: _63  and  _64
REMARK   25  A    between atoms: _63  and  _66
REMARK   26  A    between atoms: _66  and  _67
REMARK   27  A    between atoms: _70  and  _72
REMARK   28  A    between atoms: _72  and  _73
REMARK   29  A    between atoms: _72  and  _75
REMARK   30  A    between atoms: _75  and  _76
REMARK   31  A    between atoms: _81  and  _82
REMARK   32  A    between atoms: _84  and  _86
REMARK   33  A    between atoms: _86  and  _87
REMARK   34  A    between atoms: _86  and  _89
REMARK   35  A    between atoms: _89  and  _90
REMARK   36  A    between atoms: _90  and  _91
REMARK   37  A    between atoms: _93  and  _95
REMARK   38  A    between atoms: _95  and  _96
REMARK   39  A    between atoms: _95  and  _98
REMARK   40  A    between atoms: _98  and  _99
REMARK   41  A    between atoms: _99  and  _100
REMARK   42  A    between atoms: _103  and  _105
REMARK   43  A    between atoms: _105  and  _106
REMARK   44  A    between atoms: _105  and  _108
REMARK   45  A    between atoms: _111  and  _113
REMARK   46  A    between atoms: _113  and  _114
REMARK   47  A    between atoms: _116  and  _118
REMARK   48  A    between atoms: _118  and  _119
REMARK   49  A    between atoms: _118  and  _121
REMARK   50  A    between atoms: _121  and  _122
REMARK   51  A    between atoms: _128  and  _130
REMARK   52  A    between atoms: _130  and  _131
REMARK   53  A    between atoms: _130  and  _133
REMARK   54  A    between atoms: _136  and  _138
REMARK   55  A    between atoms: _138  and  _139
REMARK   56  A    between atoms: _138  and  _141
REMARK   57  A    between atoms: _141  and  _142
REMARK   58  A    between atoms: _148  and  _150
REMARK   59  A    between atoms: _150  and  _151
REMARK   60  A    between atoms: _150  and  _153
REMARK   61  A    between atoms: _153  and  _154
REMARK   62  A    between atoms: _159  and  _160
REMARK   63  A    between atoms: _162  and  _164
REMARK   64  A    between atoms: _164  and  _165
REMARK   65  A    between atoms: _164  and  _167
REMARK   66  A    between atoms: _167  and  _168
REMARK   67  A    between atoms: _168  and  _169
REMARK   68  A    between atoms: _171  and  _173
REMARK   69  A    between atoms: _173  and  _174
REMARK   70  A    between atoms: _173  and  _176
REMARK   71  A    between atoms: _176  and  _177
REMARK   72  A    between atoms: _177  and  _178
REMARK   73  A    between atoms: _181  and  _183
REMARK   74  A    between atoms: _183  and  _184
REMARK   75  A    between atoms: _183  and  _186
REMARK   76  A    between atoms: _186  and  _187
REMARK   77  A    between atoms: _192  and  _193
REMARK   78  A    between atoms: _195  and  _197
REMARK   79  A    between atoms: _197  and  _198
REMARK   80  A    between atoms: _197  and  _200
REMARK   81  A    between atoms: _200  and  _201
REMARK   82  A    between atoms: _201  and  _202
REMARK   83  A    between atoms: _202  and  _203
REMARK   84  A    between atoms: _212  and  _214
REMARK   85  A    between atoms: _214  and  _215
REMARK   86  A    between atoms: _214  and  _217
REMARK   87  A    between atoms: _217  and  _218
REMARK   88  A    between atoms: _218  and  _219
REMARK   89  A    between atoms: _222  and  _224
REMARK   90  A    between atoms: _224  and  _225
REMARK   91  A    between atoms: _224  and  _227
REMARK   92  A    between atoms: _227  and  _228
REMARK   93  A    between atoms: _228  and  _229
REMARK   94  A    between atoms: _234  and  _236
REMARK   95  A    between atoms: _236  and  _237
REMARK   96  A    between atoms: _236  and  _239
REMARK   97  A    between atoms: _239  and  _240
REMARK   98  A    between atoms: _240  and  _241
REMARK   99  A    between atoms: _241  and  _242
REMARK  100  A    between atoms: _242  and  _243
REMARK  101  A    between atoms: _247  and  _249
REMARK  102  A    between atoms: _249  and  _250
REMARK  103  A    between atoms: _253  and  _255
REMARK  104  A    between atoms: _255  and  _256
REMARK  105  A    between atoms: _255  and  _258
REMARK  106  A    between atoms: _258  and  _259
REMARK  107  A    between atoms: _259  and  _260
REMARK  108  A    between atoms: _260  and  _261
REMARK  109  A    between atoms: _261  and  _262
REMARK  110  A    between atoms: _266  and  _268
REMARK  111  A    between atoms: _268  and  _269
REMARK  112  A    between atoms: _271  and  _273
REMARK  113  A    between atoms: _273  and  _274
REMARK  114  A    between atoms: _273  and  _276
REMARK  115  A    between atoms: _276  and  _277
REMARK  116  A    between atoms: _282  and  _284
REMARK  117  A    between atoms: _284  and  _285
REMARK  118  A    between atoms: _284  and  _287
REMARK  119  A    between atoms: _287  and  _288
REMARK  120  A    between atoms: _288  and  _289
REMARK  121  A    between atoms: _292  and  _294
REMARK  122  A    between atoms: _294  and  _295
REMARK  123  A    between atoms: _294  and  _297
REMARK  124  A    between atoms: _297  and  _298
REMARK  125  A    between atoms: _298  and  _299
REMARK  126  A    between atoms: _304  and  _306
REMARK  127  A    between atoms: _306  and  _307
REMARK  128  A    between atoms: _306  and  _309
REMARK  129  A    between atoms: _309  and  _310
REMARK  130  A    between atoms: _312  and  _314
REMARK  131  A    between atoms: _314  and  _315
REMARK  132  A    between atoms: _314  and  _317
REMARK  133  A    between atoms: _317  and  _318
REMARK  134  A    between atoms: _324  and  _326
REMARK  135  A    between atoms: _326  and  _327
REMARK  136  A    between atoms: _326  and  _329
REMARK  137  A    between atoms: _329  and  _330
REMARK  138  A    between atoms: _330  and  _331
REMARK  139  A    between atoms: _331  and  _332
REMARK  140  A    between atoms: _341  and  _343
REMARK  141  A    between atoms: _343  and  _344
REMARK  142  A    between atoms: _343  and  _346
REMARK  143  A    between atoms: _349  and  _351
REMARK  144  A    between atoms: _351  and  _352
REMARK  145  A    between atoms: _351  and  _354
REMARK  146  A    between atoms: _354  and  _355
REMARK  147  A    between atoms: _358  and  _360
REMARK  148  A    between atoms: _360  and  _361
REMARK  149  A    between atoms: _360  and  _363
REMARK  150  A    between atoms: _363  and  _364
REMARK  151  A    between atoms: _367  and  _369
REMARK  152  A    between atoms: _369  and  _370
REMARK  153  A    between atoms: _369  and  _372
REMARK  154  A    between atoms: _372  and  _373
REMARK  155  A    between atoms: _373  and  _374
REMARK  156  A    between atoms: _374  and  _375
REMARK  157  A    between atoms: _384  and  _386
REMARK  158  A    between atoms: _386  and  _387
REMARK  159  A    between atoms: _386  and  _389
REMARK  160  A    between atoms: _389  and  _390
REMARK  161  A    between atoms: _393  and  _395
REMARK  162  A    between atoms: _395  and  _396
REMARK  163  A    between atoms: _395  and  _398
REMARK  164  A    between atoms: _398  and  _399
REMARK  165  A    between atoms: _402  and  _404
REMARK  166  A    between atoms: _404  and  _405
REMARK  167  A    between atoms: _404  and  _407
REMARK  168  A    between atoms: _407  and  _408
REMARK  169  A    between atoms: _411  and  _413
REMARK  170  A    between atoms: _413  and  _414
REMARK  171  A    between atoms: _413  and  _416
REMARK  172  A    between atoms: _416  and  _417
REMARK  173  A    between atoms: _422  and  _423
REMARK  174  A    between atoms: _425  and  _427
REMARK  175  A    between atoms: _427  and  _428
REMARK  176  A    between atoms: _427  and  _430
REMARK  177  A    between atoms: _430  and  _431
REMARK  178  A    between atoms: _436  and  _437
REMARK  179  A    between atoms: _439  and  _441
REMARK  180  A    between atoms: _441  and  _442
REMARK  181  A    between atoms: _441  and  _444
REMARK  182  A    between atoms: _444  and  _445
REMARK  183  A    between atoms: _448  and  _450
REMARK  184  A    between atoms: _450  and  _451
REMARK  185  A    between atoms: _450  and  _453
REMARK  186  A    between atoms: _456  and  _458
REMARK  187  A    between atoms: _458  and  _459
REMARK  188  A    between atoms: _458  and  _461
REMARK  189  A    between atoms: _461  and  _462
REMARK  190  A    between atoms: _465  and  _467
REMARK  191  A    between atoms: _467  and  _468
REMARK  192  A    between atoms: _467  and  _470
REMARK  193  A    between atoms: _470  and  _471
REMARK  194  A    between atoms: _473  and  _475
REMARK  195  A    between atoms: _475  and  _476
REMARK  196  A    between atoms: _478  and  _480
REMARK  197  A    between atoms: _480  and  _481
REMARK  198  A    between atoms: _480  and  _483
REMARK  199  A    between atoms: _483  and  _484
REMARK  200  A    between atoms: _489  and  _490
REMARK  201  A    between atoms: _492  and  _494
REMARK  202  A    between atoms: _494  and  _495
REMARK  203  A    between atoms: _494  and  _497
REMARK  204  A    between atoms: _497  and  _498
REMARK  205  A    between atoms: _498  and  _499
REMARK  206  A    between atoms: _504  and  _506
REMARK  207  A    between atoms: _506  and  _507
REMARK  208  A    between atoms: _506  and  _509
REMARK  209  A    between atoms: _509  and  _510
REMARK  210  A    between atoms: _510  and  _511
REMARK  211  A    between atoms: _516  and  _518
REMARK  212  A    between atoms: _518  and  _519
REMARK  213  A    between atoms: _518  and  _521
REMARK  214  A    between atoms: _521  and  _522
REMARK  215  A    between atoms: _527  and  _528
REMARK  216  A    between atoms: _530  and  _532
REMARK  217  A    between atoms: _532  and  _533
REMARK  218  A    between atoms: _532  and  _535
REMARK  219  A    between atoms: _535  and  _536
REMARK  220  A    between atoms: _541  and  _542
REMARK  221  A    between atoms: _544  and  _546
REMARK  222  A    between atoms: _546  and  _547
REMARK  223  A    between atoms: _546  and  _549
REMARK  224  A    between atoms: _549  and  _550
REMARK  225  A    between atoms: _555  and  _556
REMARK  226  A    between atoms: _558  and  _560
REMARK  227  A    between atoms: _560  and  _561
REMARK  228  A    between atoms: _560  and  _563
REMARK  229  A    between atoms: _563  and  _564
REMARK  230  A    between atoms: _567  and  _569
REMARK  231  A    between atoms: _569  and  _570
REMARK  232  A    between atoms: _569  and  _572
REMARK  233  A    between atoms: _572  and  _573
REMARK  234  A    between atoms: _583  and  _585
REMARK  235  A    between atoms: _585  and  _586
REMARK  236  A    between atoms: _589  and  _591
REMARK  237  A    between atoms: _591  and  _592
REMARK  238  A    between atoms: _595  and  _597
REMARK  239  A    between atoms: _597  and  _598
REMARK  240  A    between atoms: _597  and  _600
REMARK  241  A    between atoms: _600  and  _601
REMARK  242  A    between atoms: _604  and  _606
REMARK  243  A    between atoms: _606  and  _607
REMARK  244  A    between atoms: _606  and  _609
REMARK  245  A    between atoms: _609  and  _610
REMARK  246  A    between atoms: _613  and  _615
REMARK  247  A    between atoms: _615  and  _616
REMARK  248  A    between atoms: _615  and  _618
REMARK  249  A    between atoms: _618  and  _619
REMARK  250  A    between atoms: _622  and  _624
REMARK  251  A    between atoms: _624  and  _625
REMARK  252  A    between atoms: _624  and  _627
REMARK  253  A    between atoms: _627  and  _628
REMARK  254  A    between atoms: _628  and  _629
REMARK  255  A    between atoms: _629  and  _630
REMARK  256  A    between atoms: _630  and  _631
REMARK  257  A    between atoms: _635  and  _637
REMARK  258  A    between atoms: _637  and  _638
REMARK  259  A    between atoms: _637  and  _640
REMARK  260  A    between atoms: _640  and  _641
REMARK  261  A    between atoms: _646  and  _648
REMARK  262  A    between atoms: _648  and  _649
REMARK  263  A    between atoms: _648  and  _651
REMARK  264  A    between atoms: _651  and  _652
REMARK  265  A    between atoms: _652  and  _653
REMARK  266  A    between atoms: _653  and  _654
REMARK  267  A    between atoms: _654  and  _655
REMARK  268  A    between atoms: _659  and  _661
REMARK  269  A    between atoms: _661  and  _662
REMARK  270  A    between atoms: _661  and  _664
REMARK  271  A    between atoms: _664  and  _665
REMARK  272  A    between atoms: _675  and  _677
REMARK  273  A    between atoms: _677  and  _678
REMARK  274  A    between atoms: _681  and  _683
REMARK  275  A    between atoms: _683  and  _684
REMARK  276  A    between atoms: _686  and  _688
REMARK  277  A    between atoms: _688  and  _689
REMARK  278  A    between atoms: _688  and  _691
REMARK  279  A    between atoms: _691  and  _692
REMARK  280  A    between atoms: _692  and  _693
REMARK  281  A    between atoms: _696  and  _698
REMARK  282  A    between atoms: _698  and  _699
REMARK  283  A    between atoms: _702  and  _704
REMARK  284  A    between atoms: _704  and  _705
REMARK  285  A    between atoms: _704  and  _707
REMARK  286  A    between atoms: _707  and  _708
REMARK  287  A    between atoms: _708  and  _709
REMARK  288  A    between atoms: _712  and  _714
REMARK  289  A    between atoms: _714  and  _715
REMARK  290  A    between atoms: _714  and  _717
REMARK  291  A    between atoms: _717  and  _718
REMARK  292  A    between atoms: _718  and  _719
REMARK  293  A    between atoms: _719  and  _720
REMARK  294  A    between atoms: _729  and  _731
REMARK  295  A    between atoms: _731  and  _732
REMARK  296  A    between atoms: _731  and  _734
REMARK  297  A    between atoms: _734  and  _735
REMARK  298  A    between atoms: _738  and  _740
REMARK  299  A    between atoms: _740  and  _741
REMARK  300  A    between atoms: _740  and  _743
REMARK  301  A    between atoms: _743  and  _744
REMARK  302  A    between atoms: _744  and  _745
REMARK  303  A    between atoms: _745  and  _746
REMARK  304  A    between atoms: _755  and  _757
REMARK  305  A    between atoms: _757  and  _758
REMARK  306  A    between atoms: _761  and  _763
REMARK  307  A    between atoms: _763  and  _764
REMARK  308  A    between atoms: _763  and  _766
REMARK  309  A    between atoms: _766  and  _767
REMARK  310  A    between atoms: _772  and  _773
REMARK  311  A    between atoms: _775  and  _777
REMARK  312  A    between atoms: _777  and  _778
REMARK  313  A    between atoms: _777  and  _780
REMARK  314  A    between atoms: _780  and  _781
REMARK  315  A    between atoms: _784  and  _786
REMARK  316  A    between atoms: _786  and  _787
REMARK  317  A    between atoms: _786  and  _789
REMARK  318  A    between atoms: _789  and  _790
REMARK  319  A    between atoms: _793  and  _795
REMARK  320  A    between atoms: _795  and  _796
REMARK  321  A    between atoms: _795  and  _798
REMARK  322  A    between atoms: _800  and  _802
REMARK  323  A    between atoms: _802  and  _803
REMARK  324  A    between atoms: _802  and  _805
REMARK  325  A    between atoms: _808  and  _810
REMARK  326  A    between atoms: _810  and  _811
REMARK  327  A    between atoms: _810  and  _813
REMARK  328  A    between atoms: _813  and  _814
REMARK  329  A    between atoms: _814  and  _815
REMARK  330  A    between atoms: _818  and  _820
REMARK  331  A    between atoms: _820  and  _821
REMARK  332  A    between atoms: _820  and  _823
REMARK  333  A    between atoms: _823  and  _824
REMARK  334  A    between atoms: _834  and  _836
REMARK  335  A    between atoms: _836  and  _837
REMARK  336  A    between atoms: _836  and  _839
REMARK  337  A    between atoms: _839  and  _840
REMARK  338  A    between atoms: _843  and  _845
REMARK  339  A    between atoms: _845  and  _846
REMARK  340  A    between atoms: _845  and  _848
REMARK  341  A    between atoms: _848  and  _849
REMARK  342  A    between atoms: _849  and  _850
REMARK  343  A    between atoms: _850  and  _851
REMARK  344  A    between atoms: _860  and  _862
REMARK  345  A    between atoms: _862  and  _863
REMARK  346  A    between atoms: _862  and  _865
REMARK  347  A    between atoms: _865  and  _866
REMARK  348  A    between atoms: _871  and  _872
REMARK  349  A    between atoms: _874  and  _876
REMARK  350  A    between atoms: _876  and  _877
REMARK  351  A    between atoms: _876  and  _879
REMARK  352  A    between atoms: _879  and  _880
REMARK  353  A    between atoms: _880  and  _881
REMARK  354  A    between atoms: _886  and  _888
REMARK  355  A    between atoms: _888  and  _889
REMARK  356  A    between atoms: _888  and  _891
REMARK  357  A    between atoms: _891  and  _892
REMARK  358  A    between atoms: _895  and  _897
REMARK  359  A    between atoms: _897  and  _898
REMARK  360  A    between atoms: _897  and  _900
REMARK  361  A    between atoms: _900  and  _901
REMARK  362  A    between atoms: _903  and  _905
REMARK  363  A    between atoms: _905  and  _906
REMARK  364  A    between atoms: _905  and  _908
REMARK  365  A    between atoms: _908  and  _909
REMARK  366  A    between atoms: _911  and  _913
REMARK  367  A    between atoms: _913  and  _914
REMARK  368  A    between atoms: _913  and  _916
REMARK  369  A    between atoms: _916  and  _917
REMARK  370  A    between atoms: _923  and  _925
REMARK  371  A    between atoms: _925  and  _926
REMARK  372  A    between atoms: _925  and  _928
REMARK  373  A    between atoms: _928  and  _929
REMARK  374  A    between atoms: _929  and  _930
REMARK  375  A    between atoms: _930  and  _931
REMARK  376  A    between atoms: _940  and  _942
REMARK  377  A    between atoms: _942  and  _943
REMARK  378  A    between atoms: _942  and  _945
REMARK  379  A    between atoms: _945  and  _946
REMARK  380  A    between atoms: _946  and  _947
REMARK  381  A    between atoms: _947  and  _948
REMARK  382  A    between atoms: _957  and  _959
REMARK  383  A    between atoms: _959  and  _960
REMARK  384  A    between atoms: _962  and  _964
REMARK  385  A    between atoms: _964  and  _965
REMARK  386  A    between atoms: _964  and  _967
REMARK  387  A    between atoms: _967  and  _968
REMARK  388  A    between atoms: _974  and  _975
REMARK  389  A    between atoms: _980  and  _982
REMARK  390  A    between atoms: _982  and  _983
REMARK  391  A    between atoms: _982  and  _985
REMARK  392  A    between atoms: _985  and  _986
REMARK  393  A    between atoms: _996  and  _998
REMARK  394  A    between atoms: _998  and  _999
REMARK  395  A    between atoms: _998  and  _1001
REMARK  396  A    between atoms: _1001  and  _1002
REMARK  397  A    between atoms: _1002  and  _1003
REMARK  398  A    between atoms: _1003  and  _1004
REMARK  399  A    between atoms: _1013  and  _1015
REMARK  400  A    between atoms: _1015  and  _1016
REMARK  401  A    between atoms: _1015  and  _1018
REMARK  402  A    between atoms: _1018  and  _1019
REMARK  403  A    between atoms: _1021  and  _1023
REMARK  404  A    between atoms: _1023  and  _1024
REMARK  405  A    between atoms: _1027  and  _1029
REMARK  406  A    between atoms: _1029  and  _1030
REMARK  407  A    between atoms: _1029  and  _1032
REMARK  408  A    between atoms: _1032  and  _1033
REMARK  409  A    between atoms: _1036  and  _1038
REMARK  410  A    between atoms: _1038  and  _1039
REMARK  411  A    between atoms: _1038  and  _1041
REMARK  412  A    between atoms: _1041  and  _1042
REMARK  413  A    between atoms: _1042  and  _1043
REMARK  414  A    between atoms: _1043  and  _1044
REMARK  415  A    between atoms: _1053  and  _1055
REMARK  416  A    between atoms: _1055  and  _1056
REMARK  417  A    between atoms: _1055  and  _1058
REMARK  418  A    between atoms: _1061  and  _1063
REMARK  419  A    between atoms: _1063  and  _1064
REMARK  420  A    between atoms: _1066  and  _1068
REMARK  421  A    between atoms: _1068  and  _1069
REMARK  422  A    between atoms: _1068  and  _1071
REMARK  423  A    between atoms: _1071  and  _1072
REMARK                            x       y       z     vdW  Elec       q    Type
REMARK                         _______ _______ _______ _____ _____    ______ ____
ROOT
ATOM      1  O   HOH     1      22.550  25.570  52.811  0.00  0.00    +0.000 OA
ENDROOT
TORSDOF 0
REMARK  Name = ../refined-set-2016/1fo0/1fo0_pocket.pdb
REMARK  423 active torsions:
REMARK  status: ('A' for Active; 'I' for Inactive)
REMARK    1  A    between atoms: _1  and  _3
REMARK    2  A    between atoms: _3  and  _4
REMARK    3  A    between atoms: _3  and  _6
REMARK    4  A    between atoms: _6  and  _7
REMARK    5  A    between atoms: _10  and  _12
REMARK    6  A    between atoms: _12  and  _13
REMARK    7  A    between atoms: _12  and  _15
REMARK    8  A    between atoms: _15  and  _16
REMARK    9  A    between atoms: _16  and  _17
REMARK   10  A    between atoms: _17  and  _18
REMARK   11  A    between atoms: _27  and  _29
REMARK   12  A    between atoms: _29  and  _30
REMARK   13  A    between atoms: _29  and  _32
REMARK   14  A    between atoms: _32  and  _33
REMARK   15  A    between atoms: _38  and  _39
REMARK   16  A    between atoms: _41  and  _43
REMARK   17  A    between atoms: _43  and  _44
REMARK   18  A    between atoms: _43  and  _46
REMARK   19  A    between atoms: _46  and  _47
REMARK   20  A    between atoms: _53  and  _55
REMARK   21  A    between atoms: _55  and  _56
REMARK   22  A    between atoms: _55  and  _58
REMARK   23  A    between atoms: _61  and  _63
REMARK   24  A    between atoms: _63  and  _64
REMARK   25  A    between atoms: _63  and  _66
REMARK   26  A    between atoms: _66  and  _67
REMARK   27  A    between atoms: _70  and  _72
REMARK   28  A    between atoms: _72  and  _73
REMARK   29  A    between atoms: _72  and  _75
REMARK   30  A    between atoms: _75  and  _76
REMARK   31  A    between atoms: _81  and  _82
REMARK   32  A    between atoms: _84  and  _86
REMARK   33  A    between atoms: _86  and  _87
REMARK   34  A    between atoms: _86  and  _89
REMARK   35  A    between atoms: _89  and  _90
REMARK   36  A    between atoms: _90  and  _91
REMARK   37  A    between atoms: _93  and  _95
REMARK   38  A    between atoms: _95  and  _96
REMARK   39  A    between atoms: _95  and  _98
REMARK   40  A    between atoms: _98  and  _99
REMARK   41  A    between atoms: _99  and  _100
REMARK   42  A    between atoms: _103  and  _105
REMARK   43  A    between atoms: _105  and  _106
REMARK   44  A    between atoms: _105  and  _108
REMARK   45  A    between atoms: _111  and  _113
REMARK   46  A    between atoms: _113  and  _114
REMARK   47  A    between atoms: _116  and  _118
REMARK   48  A    between atoms: _118  and  _119
REMARK   49  A    between atoms: _118  and  _121
REMARK   50  A    between atoms: _121  and  _122
REMARK   51  A    between atoms: _128  and  _130
REMARK   52  A    between atoms: _130  and  _131
REMARK   53  A    between atoms: _130  and  _133
REMARK   54  A    between atoms: _136  and  _138
REMARK   55  A    between atoms: _138  and  _139
REMARK   56  A    between atoms: _138  and  _141
REMARK   57  A    between atoms: _141  and  _142
REMARK   58  A    between atoms: _148  and  _150
REMARK   59  A    between atoms: _150  and  _151
REMARK   60  A    between atoms: _150  and  _153
REMARK   61  A    between atoms: _153  and  _154
REMARK   62  A    between atoms: _159  and  _160
REMARK   63  A    between atoms: _162  and  _164
REMARK   64  A    between atoms: _164  and  _165
REMARK   65  A    between atoms: _164  and  _167
REMARK   66  A    between atoms: _167  and  _168
REMARK   67  A    between atoms: _168  and  _169
REMARK   68  A    between atoms: _171  and  _173
REMARK   69  A    between atoms: _173  and  _174
REMARK   70  A    between atoms: _173  and  _176
REMARK   71  A    between atoms: _176  and  _177
REMARK   72  A    between atoms: _177  and  _178
REMARK   73  A    between atoms: _181  and  _183
REMARK   74  A    between atoms: _183  and  _184
REMARK   75  A    between atoms: _183  and  _186
REMARK   76  A    between atoms: _186  and  _187
REMARK   77  A    between atoms: _192  and  _193
REMARK   78  A    between atoms: _195  and  _197
REMARK   79  A    between atoms: _197  and  _198
REMARK   80  A    between atoms: _197  and  _200
REMARK   81  A    between atoms: _200  and  _201
REMARK   82  A    between atoms: _201  and  _202
REMARK   83  A    between atoms: _202  and  _203
REMARK   84  A    between atoms: _212  and  _214
REMARK   85  A    between atoms: _214  and  _215
REMARK   86  A    between atoms: _214  and  _217
REMARK   87  A    between atoms: _217  and  _218
REMARK   88  A    between atoms: _218  and  _219
REMARK   89  A    between atoms: _222  and  _224
REMARK   90  A    between atoms: _224  and  _225
REMARK   91  A    between atoms: _224  and  _227
REMARK   92  A    between atoms: _227  and  _228
REMARK   93  A    between atoms: _228  and  _229
REMARK   94  A    between atoms: _234  and  _236
REMARK   95  A    between atoms: _236  and  _237
REMARK   96  A    between atoms: _236  and  _239
REMARK   97  A    between atoms: _239  and  _240
REMARK   98  A    between atoms: _240  and  _241
REMARK   99  A    between atoms: _241  and  _242
REMARK  100  A    between atoms: _242  and  _243
REMARK  101  A    between atoms: _247  and  _249
REMARK  102  A    between atoms: _249  and  _250
REMARK  103  A    between atoms: _253  and  _255
REMARK  104  A    between atoms: _255  and  _256
REMARK  105  A    between atoms: _255  and  _258
REMARK  106  A    between atoms: _258  and  _259
REMARK  107  A    between atoms: _259  and  _260
REMARK  108  A    between atoms: _260  and  _261
REMARK  109  A    between atoms: _261  and  _262
REMARK  110  A    between atoms: _266  and  _268
REMARK  111  A    between atoms: _268  and  _269
REMARK  112  A    between atoms: _271  and  _273
REMARK  113  A    between atoms: _273  and  _274
REMARK  114  A    between atoms: _273  and  _276
REMARK  115  A    between atoms: _276  and  _277
REMARK  116  A    between atoms: _282  and  _284
REMARK  117  A    between atoms: _284  and  _285
REMARK  118  A    between atoms: _284  and  _287
REMARK  119  A    between atoms: _287  and  _288
REMARK  120  A    between atoms: _288  and  _289
REMARK  121  A    between atoms: _292  and  _294
REMARK  122  A    between atoms: _294  and  _295
REMARK  123  A    between atoms: _294  and  _297
REMARK  124  A    between atoms: _297  and  _298
REMARK  125  A    between atoms: _298  and  _299
REMARK  126  A    between atoms: _304  and  _306
REMARK  127  A    between atoms: _306  and  _307
REMARK  128  A    between atoms: _306  and  _309
REMARK  129  A    between atoms: _309  and  _310
REMARK  130  A    between atoms: _312  and  _314
REMARK  131  A    between atoms: _314  and  _315
REMARK  132  A    between atoms: _314  and  _317
REMARK  133  A    between atoms: _317  and  _318
REMARK  134  A    between atoms: _324  and  _326
REMARK  135  A    between atoms: _326  and  _327
REMARK  136  A    between atoms: _326  and  _329
REMARK  137  A    between atoms: _329  and  _330
REMARK  138  A    between atoms: _330  and  _331
REMARK  139  A    between atoms: _331  and  _332
REMARK  140  A    between atoms: _341  and  _343
REMARK  141  A    between atoms: _343  and  _344
REMARK  142  A    between atoms: _343  and  _346
REMARK  143  A    between atoms: _349  and  _351
REMARK  144  A    between atoms: _351  and  _352
REMARK  145  A    between atoms: _351  and  _354
REMARK  146  A    between atoms: _354  and  _355
REMARK  147  A    between atoms: _358  and  _360
REMARK  148  A    between atoms: _360  and  _361
REMARK  149  A    between atoms: _360  and  _363
REMARK  150  A    between atoms: _363  and  _364
REMARK  151  A    between atoms: _367  and  _369
REMARK  152  A    between atoms: _369  and  _370
REMARK  153  A    between atoms: _369  and  _372
REMARK  154  A    between atoms: _372  and  _373
REMARK  155  A    between atoms: _373  and  _374
REMARK  156  A    between atoms: _374  and  _375
REMARK  157  A    between atoms: _384  and  _386
REMARK  158  A    between atoms: _386  and  _387
REMARK  159  A    between atoms: _386  and  _389
REMARK  160  A    between atoms: _389  and  _390
REMARK  161  A    between atoms: _393  and  _395
REMARK  162  A    between atoms: _395  and  _396
REMARK  163  A    between atoms: _395  and  _398
REMARK  164  A    between atoms: _398  and  _399
REMARK  165  A    between atoms: _402  and  _404
REMARK  166  A    between atoms: _404  and  _405
REMARK  167  A    between atoms: _404  and  _407
REMARK  168  A    between atoms: _407  and  _408
REMARK  169  A    between atoms: _411  and  _413
REMARK  170  A    between atoms: _413  and  _414
REMARK  171  A    between atoms: _413  and  _416
REMARK  172  A    between atoms: _416  and  _417
REMARK  173  A    between atoms: _422  and  _423
REMARK  174  A    between atoms: _425  and  _427
REMARK  175  A    between atoms: _427  and  _428
REMARK  176  A    between atoms: _427  and  _430
REMARK  177  A    between atoms: _430  and  _431
REMARK  178  A    between atoms: _436  and  _437
REMARK  179  A    between atoms: _439  and  _441
REMARK  180  A    between atoms: _441  and  _442
REMARK  181  A    between atoms: _441  and  _444
REMARK  182  A    between atoms: _444  and  _445
REMARK  183  A    between atoms: _448  and  _450
REMARK  184  A    between atoms: _450  and  _451
REMARK  185  A    between atoms: _450  and  _453
REMARK  186  A    between atoms: _456  and  _458
REMARK  187  A    between atoms: _458  and  _459
REMARK  188  A    between atoms: _458  and  _461
REMARK  189  A    between atoms: _461  and  _462
REMARK  190  A    between atoms: _465  and  _467
REMARK  191  A    between atoms: _467  and  _468
REMARK  192  A    between atoms: _467  and  _470
REMARK  193  A    between atoms: _470  and  _471
REMARK  194  A    between atoms: _473  and  _475
REMARK  195  A    between atoms: _475  and  _476
REMARK  196  A    between atoms: _478  and  _480
REMARK  197  A    between atoms: _480  and  _481
REMARK  198  A    between atoms: _480  and  _483
REMARK  199  A    between atoms: _483  and  _484
REMARK  200  A    between atoms: _489  and  _490
REMARK  201  A    between atoms: _492  and  _494
REMARK  202  A    between atoms: _494  and  _495
REMARK  203  A    between atoms: _494  and  _497
REMARK  204  A    between atoms: _497  and  _498
REMARK  205  A    between atoms: _498  and  _499
REMARK  206  A    between atoms: _504  and  _506
REMARK  207  A    between atoms: _506  and  _507
REMARK  208  A    between atoms: _506  and  _509
REMARK  209  A    between atoms: _509  and  _510
REMARK  210  A    between atoms: _510  and  _511
REMARK  211  A    between atoms: _516  and  _518
REMARK  212  A    between atoms: _518  and  _519
REMARK  213  A    between atoms: _518  and  _521
REMARK  214  A    between atoms: _521  and  _522
REMARK  215  A    between atoms: _527  and  _528
REMARK  216  A    between atoms: _530  and  _532
REMARK  217  A    between atoms: _532  and  _533
REMARK  218  A    between atoms: _532  and  _535
REMARK  219  A    between atoms: _535  and  _536
REMARK  220  A    between atoms: _541  and  _542
REMARK  221  A    between atoms: _544  and  _546
REMARK  222  A    between atoms: _546  and  _547
REMARK  223  A    between atoms: _546  and  _549
REMARK  224  A    between atoms: _549  and  _550
REMARK  225  A    between atoms: _555  and  _556
REMARK  226  A    between atoms: _558  and  _560
REMARK  227  A    between atoms: _560  and  _561
REMARK  228  A    between atoms: _560  and  _563
REMARK  229  A    between atoms: _563  and  _564
REMARK  230  A    between atoms: _567  and  _569
REMARK  231  A    between atoms: _569  and  _570
REMARK  232  A    between atoms: _569  and  _572
REMARK  233  A    between atoms: _572  and  _573
REMARK  234  A    between atoms: _583  and  _585
REMARK  235  A    between atoms: _585  and  _586
REMARK  236  A    between atoms: _589  and  _591
REMARK  237  A    between atoms: _591  and  _592
REMARK  238  A    between atoms: _595  and  _597
REMARK  239  A    between atoms: _597  and  _598
REMARK  240  A    between atoms: _597  and  _600
REMARK  241  A    between atoms: _600  and  _601
REMARK  242  A    between atoms: _604  and  _606
REMARK  243  A    between atoms: _606  and  _607
REMARK  244  A    between atoms: _606  and  _609
REMARK  245  A    between atoms: _609  and  _610
REMARK  246  A    between atoms: _613  and  _615
REMARK  247  A    between atoms: _615  and  _616
REMARK  248  A    between atoms: _615  and  _618
REMARK  249  A    between atoms: _618  and  _619
REMARK  250  A    between atoms: _622  and  _624
REMARK  251  A    between atoms: _624  and  _625
REMARK  252  A    between atoms: _624  and  _627
REMARK  253  A    between atoms: _627  and  _628
REMARK  254  A    between atoms: _628  and  _629
REMARK  255  A    between atoms: _629  and  _630
REMARK  256  A    between atoms: _630  and  _631
REMARK  257  A    between atoms: _635  and  _637
REMARK  258  A    between atoms: _637  and  _638
REMARK  259  A    between atoms: _637  and  _640
REMARK  260  A    between atoms: _640  and  _641
REMARK  261  A    between atoms: _646  and  _648
REMARK  262  A    between atoms: _648  and  _649
REMARK  263  A    between atoms: _648  and  _651
REMARK  264  A    between atoms: _651  and  _652
REMARK  265  A    between atoms: _652  and  _653
REMARK  266  A    between atoms: _653  and  _654
REMARK  267  A    between atoms: _654  and  _655
REMARK  268  A    between atoms: _659  and  _661
REMARK  269  A    between atoms: _661  and  _662
REMARK  270  A    between atoms: _661  and  _664
REMARK  271  A    between atoms: _664  and  _665
REMARK  272  A    between atoms: _675  and  _677
REMARK  273  A    between atoms: _677  and  _678
REMARK  274  A    between atoms: _681  and  _683
REMARK  275  A    between atoms: _683  and  _684
REMARK  276  A    between atoms: _686  and  _688
REMARK  277  A    between atoms: _688  and  _689
REMARK  278  A    between atoms: _688  and  _691
REMARK  279  A    between atoms: _691  and  _692
REMARK  280  A    between atoms: _692  and  _693
REMARK  281  A    between atoms: _696  and  _698
REMARK  282  A    between atoms: _698  and  _699
REMARK  283  A    between atoms: _702  and  _704
REMARK  284  A    between atoms: _704  and  _705
REMARK  285  A    between atoms: _704  and  _707
REMARK  286  A    between atoms: _707  and  _708
REMARK  287  A    between atoms: _708  and  _709
REMARK  288  A    between atoms: _712  and  _714
REMARK  289  A    between atoms: _714  and  _715
REMARK  290  A    between atoms: _714  and  _717
REMARK  291  A    between atoms: _717  and  _718
REMARK  292  A    between atoms: _718  and  _719
REMARK  293  A    between atoms: _719  and  _720
REMARK  294  A    between atoms: _729  and  _731
REMARK  295  A    between atoms: _731  and  _732
REMARK  296  A    between atoms: _731  and  _734
REMARK  297  A    between atoms: _734  and  _735
REMARK  298  A    between atoms: _738  and  _740
REMARK  299  A    between atoms: _740  and  _741
REMARK  300  A    between atoms: _740  and  _743
REMARK  301  A    between atoms: _743  and  _744
REMARK  302  A    between atoms: _744  and  _745
REMARK  303  A    between atoms: _745  and  _746
REMARK  304  A    between atoms: _755  and  _757
REMARK  305  A    between atoms: _757  and  _758
REMARK  306  A    between atoms: _761  and  _763
REMARK  307  A    between atoms: _763  and  _764
REMARK  308  A    between atoms: _763  and  _766
REMARK  309  A    between atoms: _766  and  _767
REMARK  310  A    between atoms: _772  and  _773
REMARK  311  A    between atoms: _775  and  _777
REMARK  312  A    between atoms: _777  and  _778
REMARK  313  A    between atoms: _777  and  _780
REMARK  314  A    between atoms: _780  and  _781
REMARK  315  A    between atoms: _784  and  _786
REMARK  316  A    between atoms: _786  and  _787
REMARK  317  A    between atoms: _786  and  _789
REMARK  318  A    between atoms: _789  and  _790
REMARK  319  A    between atoms: _793  and  _795
REMARK  320  A    between atoms: _795  and  _796
REMARK  321  A    between atoms: _795  and  _798
REMARK  322  A    between atoms: _800  and  _802
REMARK  323  A    between atoms: _802  and  _803
REMARK  324  A    between atoms: _802  and  _805
REMARK  325  A    between atoms: _808  and  _810
REMARK  326  A    between atoms: _810  and  _811
REMARK  327  A    between atoms: _810  and  _813
REMARK  328  A    between atoms: _813  and  _814
REMARK  329  A    between atoms: _814  and  _815
REMARK  330  A    between atoms: _818  and  _820
REMARK  331  A    between atoms: _820  and  _821
REMARK  332  A    between atoms: _820  and  _823
REMARK  333  A    between atoms: _823  and  _824
REMARK  334  A    between atoms: _834  and  _836
REMARK  335  A    between atoms: _836  and  _837
REMARK  336  A    between atoms: _836  and  _839
REMARK  337  A    between atoms: _839  and  _840
REMARK  338  A    between atoms: _843  and  _845
REMARK  339  A    between atoms: _845  and  _846
REMARK  340  A    between atoms: _845  and  _848
REMARK  341  A    between atoms: _848  and  _849
REMARK  342  A    between atoms: _849  and  _850
REMARK  343  A    between atoms: _850  and  _851
REMARK  344  A    between atoms: _860  and  _862
REMARK  345  A    between atoms: _862  and  _863
REMARK  346  A    between atoms: _862  and  _865
REMARK  347  A    between atoms: _865  and  _866
REMARK  348  A    between atoms: _871  and  _872
REMARK  349  A    between atoms: _874  and  _876
REMARK  350  A    between atoms: _876  and  _877
REMARK  351  A    between atoms: _876  and  _879
REMARK  352  A    between atoms: _879  and  _880
REMARK  353  A    between atoms: _880  and  _881
REMARK  354  A    between atoms: _886  and  _888
REMARK  355  A    between atoms: _888  and  _889
REMARK  356  A    between atoms: _888  and  _891
REMARK  357  A    between atoms: _891  and  _892
REMARK  358  A    between atoms: _895  and  _897
REMARK  359  A    between atoms: _897  and  _898
REMARK  360  A    between atoms: _897  and  _900
REMARK  361  A    between atoms: _900  and  _901
REMARK  362  A    between atoms: _903  and  _905
REMARK  363  A    between atoms: _905  and  _906
REMARK  364  A    between atoms: _905  and  _908
REMARK  365  A    between atoms: _908  and  _909
REMARK  366  A    between atoms: _911  and  _913
REMARK  367  A    between atoms: _913  and  _914
REMARK  368  A    between atoms: _913  and  _916
REMARK  369  A    between atoms: _916  and  _917
REMARK  370  A    between atoms: _923  and  _925
REMARK  371  A    between atoms: _925  and  _926
REMARK  372  A    between atoms: _925  and  _928
REMARK  373  A    between atoms: _928  and  _929
REMARK  374  A    between atoms: _929  and  _930
REMARK  375  A    between atoms: _930  and  _931
REMARK  376  A    between atoms: _940  and  _942
REMARK  377  A    between atoms: _942  and  _943
REMARK  378  A    between atoms: _942  and  _945
REMARK  379  A    between atoms: _945  and  _946
REMARK  380  A    between atoms: _946  and  _947
REMARK  381  A    between atoms: _947  and  _948
REMARK  382  A    between atoms: _957  and  _959
REMARK  383  A    between atoms: _959  and  _960
REMARK  384  A    between atoms: _962  and  _964
REMARK  385  A    between atoms: _964  and  _965
REMARK  386  A    between atoms: _964  and  _967
REMARK  387  A    between atoms: _967  and  _968
REMARK  388  A    between atoms: _974  and  _975
REMARK  389  A    between atoms: _980  and  _982
REMARK  390  A    between atoms: _982  and  _983
REMARK  391  A    between atoms: _982  and  _985
REMARK  392  A    between atoms: _985  and  _986
REMARK  393  A    between atoms: _996  and  _998
REMARK  394  A    between atoms: _998  and  _999
REMARK  395  A    between atoms: _998  and  _1001
REMARK  396  A    between atoms: _1001  and  _1002
REMARK  397  A    between atoms: _1002  and  _1003
REMARK  398  A    between atoms: _1003  and  _1004
REMARK  399  A    between atoms: _1013  and  _1015
REMARK  400  A    between atoms: _1015  and  _1016
REMARK  401  A    between atoms: _1015  and  _1018
REMARK  402  A    between atoms: _1018  and  _1019
REMARK  403  A    between atoms: _1021  and  _1023
REMARK  404  A    between atoms: _1023  and  _1024
REMARK  405  A    between atoms: _1027  and  _1029
REMARK  406  A    between atoms: _1029  and  _1030
REMARK  407  A    between atoms: _1029  and  _1032
REMARK  408  A    between atoms: _1032  and  _1033
REMARK  409  A    between atoms: _1036  and  _1038
REMARK  410  A    between atoms: _1038  and  _1039
REMARK  411  A    between atoms: _1038  and  _1041
REMARK  412  A    between atoms: _1041  and  _1042
REMARK  413  A    between atoms: _1042  and  _1043
REMARK  414  A    between atoms: _1043  and  _1044
REMARK  415  A    between atoms: _1053  and  _1055
REMARK  416  A    between atoms: _1055  and  _1056
REMARK  417  A    between atoms: _1055  and  _1058
REMARK  418  A    between atoms: _1061  and  _1063
REMARK  419  A    between atoms: _1063  and  _1064
REMARK  420  A    between atoms: _1066  and  _1068
REMARK  421  A    between atoms: _1068  and  _1069
REMARK  422  A    between atoms: _1068  and  _1071
REMARK  423  A    between atoms: _1071  and  _1072
REMARK                            x       y       z     vdW  Elec       q    Type
REMARK                         _______ _______ _______ _____ _____    ______ ____
ROOT
ATOM      1  O   HOH     1       6.816  22.465  55.841  0.00  0.00    +0.000 OA
ENDROOT
TORSDOF 0
REMARK  Name = ../refined-set-2016/1fo0/1fo0_pocket.pdb
REMARK  423 active torsions:
REMARK  status: ('A' for Active; 'I' for Inactive)
REMARK    1  A    between atoms: _1  and  _3
REMARK    2  A    between atoms: _3  and  _4
REMARK    3  A    between atoms: _3  and  _6
REMARK    4  A    between atoms: _6  and  _7
REMARK    5  A    between atoms: _10  and  _12
REMARK    6  A    between atoms: _12  and  _13
REMARK    7  A    between atoms: _12  and  _15
REMARK    8  A    between atoms: _15  and  _16
REMARK    9  A    between atoms: _16  and  _17
REMARK   10  A    between atoms: _17  and  _18
REMARK   11  A    between atoms: _27  and  _29
REMARK   12  A    between atoms: _29  and  _30
REMARK   13  A    between atoms: _29  and  _32
REMARK   14  A    between atoms: _32  and  _33
REMARK   15  A    between atoms: _38  and  _39
REMARK   16  A    between atoms: _41  and  _43
REMARK   17  A    between atoms: _43  and  _44
REMARK   18  A    between atoms: _43  and  _46
REMARK   19  A    between atoms: _46  and  _47
REMARK   20  A    between atoms: _53  and  _55
REMARK   21  A    between atoms: _55  and  _56
REMARK   22  A    between atoms: _55  and  _58
REMARK   23  A    between atoms: _61  and  _63
REMARK   24  A    between atoms: _63  and  _64
REMARK   25  A    between atoms: _63  and  _66
REMARK   26  A    between atoms: _66  and  _67
REMARK   27  A    between atoms: _70  and  _72
REMARK   28  A    between atoms: _72  and  _73
REMARK   29  A    between atoms: _72  and  _75
REMARK   30  A    between atoms: _75  and  _76
REMARK   31  A    between atoms: _81  and  _82
REMARK   32  A    between atoms: _84  and  _86
REMARK   33  A    between atoms: _86  and  _87
REMARK   34  A    between atoms: _86  and  _89
REMARK   35  A    between atoms: _89  and  _90
REMARK   36  A    between atoms: _90  and  _91
REMARK   37  A    between atoms: _93  and  _95
REMARK   38  A    between atoms: _95  and  _96
REMARK   39  A    between atoms: _95  and  _98
REMARK   40  A    between atoms: _98  and  _99
REMARK   41  A    between atoms: _99  and  _100
REMARK   42  A    between atoms: _103  and  _105
REMARK   43  A    between atoms: _105  and  _106
REMARK   44  A    between atoms: _105  and  _108
REMARK   45  A    between atoms: _111  and  _113
REMARK   46  A    between atoms: _113  and  _114
REMARK   47  A    between atoms: _116  and  _118
REMARK   48  A    between atoms: _118  and  _119
REMARK   49  A    between atoms: _118  and  _121
REMARK   50  A    between atoms: _121  and  _122
REMARK   51  A    between atoms: _128  and  _130
REMARK   52  A    between atoms: _130  and  _131
REMARK   53  A    between atoms: _130  and  _133
REMARK   54  A    between atoms: _136  and  _138
REMARK   55  A    between atoms: _138  and  _139
REMARK   56  A    between atoms: _138  and  _141
REMARK   57  A    between atoms: _141  and  _142
REMARK   58  A    between atoms: _148  and  _150
REMARK   59  A    between atoms: _150  and  _151
REMARK   60  A    between atoms: _150  and  _153
REMARK   61  A    between atoms: _153  and  _154
REMARK   62  A    between atoms: _159  and  _160
REMARK   63  A    between atoms: _162  and  _164
REMARK   64  A    between atoms: _164  and  _165
REMARK   65  A    between atoms: _164  and  _167
REMARK   66  A    between atoms: _167  and  _168
REMARK   67  A    between atoms: _168  and  _169
REMARK   68  A    between atoms: _171  and  _173
REMARK   69  A    between atoms: _173  and  _174
REMARK   70  A    between atoms: _173  and  _176
REMARK   71  A    between atoms: _176  and  _177
REMARK   72  A    between atoms: _177  and  _178
REMARK   73  A    between atoms: _181  and  _183
REMARK   74  A    between atoms: _183  and  _184
REMARK   75  A    between atoms: _183  and  _186
REMARK   76  A    between atoms: _186  and  _187
REMARK   77  A    between atoms: _192  and  _193
REMARK   78  A    between atoms: _195  and  _197
REMARK   79  A    between atoms: _197  and  _198
REMARK   80  A    between atoms: _197  and  _200
REMARK   81  A    between atoms: _200  and  _201
REMARK   82  A    between atoms: _201  and  _202
REMARK   83  A    between atoms: _202  and  _203
REMARK   84  A    between atoms: _212  and  _214
REMARK   85  A    between atoms: _214  and  _215
REMARK   86  A    between atoms: _214  and  _217
REMARK   87  A    between atoms: _217  and  _218
REMARK   88  A    between atoms: _218  and  _219
REMARK   89  A    between atoms: _222  and  _224
REMARK   90  A    between atoms: _224  and  _225
REMARK   91  A    between atoms: _224  and  _227
REMARK   92  A    between atoms: _227  and  _228
REMARK   93  A    between atoms: _228  and  _229
REMARK   94  A    between atoms: _234  and  _236
REMARK   95  A    between atoms: _236  and  _237
REMARK   96  A    between atoms: _236  and  _239
REMARK   97  A    between atoms: _239  and  _240
REMARK   98  A    between atoms: _240  and  _241
REMARK   99  A    between atoms: _241  and  _242
REMARK  100  A    between atoms: _242  and  _243
REMARK  101  A    between atoms: _247  and  _249
REMARK  102  A    between atoms: _249  and  _250
REMARK  103  A    between atoms: _253  and  _255
REMARK  104  A    between atoms: _255  and  _256
REMARK  105  A    between atoms: _255  and  _258
REMARK  106  A    between atoms: _258  and  _259
REMARK  107  A    between atoms: _259  and  _260
REMARK  108  A    between atoms: _260  and  _261
REMARK  109  A    between atoms: _261  and  _262
REMARK  110  A    between atoms: _266  and  _268
REMARK  111  A    between atoms: _268  and  _269
REMARK  112  A    between atoms: _271  and  _273
REMARK  113  A    between atoms: _273  and  _274
REMARK  114  A    between atoms: _273  and  _276
REMARK  115  A    between atoms: _276  and  _277
REMARK  116  A    between atoms: _282  and  _284
REMARK  117  A    between atoms: _284  and  _285
REMARK  118  A    between atoms: _284  and  _287
REMARK  119  A    between atoms: _287  and  _288
REMARK  120  A    between atoms: _288  and  _289
REMARK  121  A    between atoms: _292  and  _294
REMARK  122  A    between atoms: _294  and  _295
REMARK  123  A    between atoms: _294  and  _297
REMARK  124  A    between atoms: _297  and  _298
REMARK  125  A    between atoms: _298  and  _299
REMARK  126  A    between atoms: _304  and  _306
REMARK  127  A    between atoms: _306  and  _307
REMARK  128  A    between atoms: _306  and  _309
REMARK  129  A    between atoms: _309  and  _310
REMARK  130  A    between atoms: _312  and  _314
REMARK  131  A    between atoms: _314  and  _315
REMARK  132  A    between atoms: _314  and  _317
REMARK  133  A    between atoms: _317  and  _318
REMARK  134  A    between atoms: _324  and  _326
REMARK  135  A    between atoms: _326  and  _327
REMARK  136  A    between atoms: _326  and  _329
REMARK  137  A    between atoms: _329  and  _330
REMARK  138  A    between atoms: _330  and  _331
REMARK  139  A    between atoms: _331  and  _332
REMARK  140  A    between atoms: _341  and  _343
REMARK  141  A    between atoms: _343  and  _344
REMARK  142  A    between atoms: _343  and  _346
REMARK  143  A    between atoms: _349  and  _351
REMARK  144  A    between atoms: _351  and  _352
REMARK  145  A    between atoms: _351  and  _354
REMARK  146  A    between atoms: _354  and  _355
REMARK  147  A    between atoms: _358  and  _360
REMARK  148  A    between atoms: _360  and  _361
REMARK  149  A    between atoms: _360  and  _363
REMARK  150  A    between atoms: _363  and  _364
REMARK  151  A    between atoms: _367  and  _369
REMARK  152  A    between atoms: _369  and  _370
REMARK  153  A    between atoms: _369  and  _372
REMARK  154  A    between atoms: _372  and  _373
REMARK  155  A    between atoms: _373  and  _374
REMARK  156  A    between atoms: _374  and  _375
REMARK  157  A    between atoms: _384  and  _386
REMARK  158  A    between atoms: _386  and  _387
REMARK  159  A    between atoms: _386  and  _389
REMARK  160  A    between atoms: _389  and  _390
REMARK  161  A    between atoms: _393  and  _395
REMARK  162  A    between atoms: _395  and  _396
REMARK  163  A    between atoms: _395  and  _398
REMARK  164  A    between atoms: _398  and  _399
REMARK  165  A    between atoms: _402  and  _404
REMARK  166  A    between atoms: _404  and  _405
REMARK  167  A    between atoms: _404  and  _407
REMARK  168  A    between atoms: _407  and  _408
REMARK  169  A    between atoms: _411  and  _413
REMARK  170  A    between atoms: _413  and  _414
REMARK  171  A    between atoms: _413  and  _416
REMARK  172  A    between atoms: _416  and  _417
REMARK  173  A    between atoms: _422  and  _423
REMARK  174  A    between atoms: _425  and  _427
REMARK  175  A    between atoms: _427  and  _428
REMARK  176  A    between atoms: _427  and  _430
REMARK  177  A    between atoms: _430  and  _431
REMARK  178  A    between atoms: _436  and  _437
REMARK  179  A    between atoms: _439  and  _441
REMARK  180  A    between atoms: _441  and  _442
REMARK  181  A    between atoms: _441  and  _444
REMARK  182  A    between atoms: _444  and  _445
REMARK  183  A    between atoms: _448  and  _450
REMARK  184  A    between atoms: _450  and  _451
REMARK  185  A    between atoms: _450  and  _453
REMARK  186  A    between atoms: _456  and  _458
REMARK  187  A    between atoms: _458  and  _459
REMARK  188  A    between atoms: _458  and  _461
REMARK  189  A    between atoms: _461  and  _462
REMARK  190  A    between atoms: _465  and  _467
REMARK  191  A    between atoms: _467  and  _468
REMARK  192  A    between atoms: _467  and  _470
REMARK  193  A    between atoms: _470  and  _471
REMARK  194  A    between atoms: _473  and  _475
REMARK  195  A    between atoms: _475  and  _476
REMARK  196  A    between atoms: _478  and  _480
REMARK  197  A    between atoms: _480  and  _481
REMARK  198  A    between atoms: _480  and  _483
REMARK  199  A    between atoms: _483  and  _484
REMARK  200  A    between atoms: _489  and  _490
REMARK  201  A    between atoms: _492  and  _494
REMARK  202  A    between atoms: _494  and  _495
REMARK  203  A    between atoms: _494  and  _497
REMARK  204  A    between atoms: _497  and  _498
REMARK  205  A    between atoms: _498  and  _499
REMARK  206  A    between atoms: _504  and  _506
REMARK  207  A    between atoms: _506  and  _507
REMARK  208  A    between atoms: _506  and  _509
REMARK  209  A    between atoms: _509  and  _510
REMARK  210  A    between atoms: _510  and  _511
REMARK  211  A    between atoms: _516  and  _518
REMARK  212  A    between atoms: _518  and  _519
REMARK  213  A    between atoms: _518  and  _521
REMARK  214  A    between atoms: _521  and  _522
REMARK  215  A    between atoms: _527  and  _528
REMARK  216  A    between atoms: _530  and  _532
REMARK  217  A    between atoms: _532  and  _533
REMARK  218  A    between atoms: _532  and  _535
REMARK  219  A    between atoms: _535  and  _536
REMARK  220  A    between atoms: _541  and  _542
REMARK  221  A    between atoms: _544  and  _546
REMARK  222  A    between atoms: _546  and  _547
REMARK  223  A    between atoms: _546  and  _549
REMARK  224  A    between atoms: _549  and  _550
REMARK  225  A    between atoms: _555  and  _556
REMARK  226  A    between atoms: _558  and  _560
REMARK  227  A    between atoms: _560  and  _561
REMARK  228  A    between atoms: _560  and  _563
REMARK  229  A    between atoms: _563  and  _564
REMARK  230  A    between atoms: _567  and  _569
REMARK  231  A    between atoms: _569  and  _570
REMARK  232  A    between atoms: _569  and  _572
REMARK  233  A    between atoms: _572  and  _573
REMARK  234  A    between atoms: _583  and  _585
REMARK  235  A    between atoms: _585  and  _586
REMARK  236  A    between atoms: _589  and  _591
REMARK  237  A    between atoms: _591  and  _592
REMARK  238  A    between atoms: _595  and  _597
REMARK  239  A    between atoms: _597  and  _598
REMARK  240  A    between atoms: _597  and  _600
REMARK  241  A    between atoms: _600  and  _601
REMARK  242  A    between atoms: _604  and  _606
REMARK  243  A    between atoms: _606  and  _607
REMARK  244  A    between atoms: _606  and  _609
REMARK  245  A    between atoms: _609  and  _610
REMARK  246  A    between atoms: _613  and  _615
REMARK  247  A    between atoms: _615  and  _616
REMARK  248  A    between atoms: _615  and  _618
REMARK  249  A    between atoms: _618  and  _619
REMARK  250  A    between atoms: _622  and  _624
REMARK  251  A    between atoms: _624  and  _625
REMARK  252  A    between atoms: _624  and  _627
REMARK  253  A    between atoms: _627  and  _628
REMARK  254  A    between atoms: _628  and  _629
REMARK  255  A    between atoms: _629  and  _630
REMARK  256  A    between atoms: _630  and  _631
REMARK  257  A    between atoms: _635  and  _637
REMARK  258  A    between atoms: _637  and  _638
REMARK  259  A    between atoms: _637  and  _640
REMARK  260  A    between atoms: _640  and  _641
REMARK  261  A    between atoms: _646  and  _648
REMARK  262  A    between atoms: _648  and  _649
REMARK  263  A    between atoms: _648  and  _651
REMARK  264  A    between atoms: _651  and  _652
REMARK  265  A    between atoms: _652  and  _653
REMARK  266  A    between atoms: _653  and  _654
REMARK  267  A    between atoms: _654  and  _655
REMARK  268  A    between atoms: _659  and  _661
REMARK  269  A    between atoms: _661  and  _662
REMARK  270  A    between atoms: _661  and  _664
REMARK  271  A    between atoms: _664  and  _665
REMARK  272  A    between atoms: _675  and  _677
REMARK  273  A    between atoms: _677  and  _678
REMARK  274  A    between atoms: _681  and  _683
REMARK  275  A    between atoms: _683  and  _684
REMARK  276  A    between atoms: _686  and  _688
REMARK  277  A    between atoms: _688  and  _689
REMARK  278  A    between atoms: _688  and  _691
REMARK  279  A    between atoms: _691  and  _692
REMARK  280  A    between atoms: _692  and  _693
REMARK  281  A    between atoms: _696  and  _698
REMARK  282  A    between atoms: _698  and  _699
REMARK  283  A    between atoms: _702  and  _704
REMARK  284  A    between atoms: _704  and  _705
REMARK  285  A    between atoms: _704  and  _707
REMARK  286  A    between atoms: _707  and  _708
REMARK  287  A    between atoms: _708  and  _709
REMARK  288  A    between atoms: _712  and  _714
REMARK  289  A    between atoms: _714  and  _715
REMARK  290  A    between atoms: _714  and  _717
REMARK  291  A    between atoms: _717  and  _718
REMARK  292  A    between atoms: _718  and  _719
REMARK  293  A    between atoms: _719  and  _720
REMARK  294  A    between atoms: _729  and  _731
REMARK  295  A    between atoms: _731  and  _732
REMARK  296  A    between atoms: _731  and  _734
REMARK  297  A    between atoms: _734  and  _735
REMARK  298  A    between atoms: _738  and  _740
REMARK  299  A    between atoms: _740  and  _741
REMARK  300  A    between atoms: _740  and  _743
REMARK  301  A    between atoms: _743  and  _744
REMARK  302  A    between atoms: _744  and  _745
REMARK  303  A    between atoms: _745  and  _746
REMARK  304  A    between atoms: _755  and  _757
REMARK  305  A    between atoms: _757  and  _758
REMARK  306  A    between atoms: _761  and  _763
REMARK  307  A    between atoms: _763  and  _764
REMARK  308  A    between atoms: _763  and  _766
REMARK  309  A    between atoms: _766  and  _767
REMARK  310  A    between atoms: _772  and  _773
REMARK  311  A    between atoms: _775  and  _777
REMARK  312  A    between atoms: _777  and  _778
REMARK  313  A    between atoms: _777  and  _780
REMARK  314  A    between atoms: _780  and  _781
REMARK  315  A    between atoms: _784  and  _786
REMARK  316  A    between atoms: _786  and  _787
REMARK  317  A    between atoms: _786  and  _789
REMARK  318  A    between atoms: _789  and  _790
REMARK  319  A    between atoms: _793  and  _795
REMARK  320  A    between atoms: _795  and  _796
REMARK  321  A    between atoms: _795  and  _798
REMARK  322  A    between atoms: _800  and  _802
REMARK  323  A    between atoms: _802  and  _803
REMARK  324  A    between atoms: _802  and  _805
REMARK  325  A    between atoms: _808  and  _810
REMARK  326  A    between atoms: _810  and  _811
REMARK  327  A    between atoms: _810  and  _813
REMARK  328  A    between atoms: _813  and  _814
REMARK  329  A    between atoms: _814  and  _815
REMARK  330  A    between atoms: _818  and  _820
REMARK  331  A    between atoms: _820  and  _821
REMARK  332  A    between atoms: _820  and  _823
REMARK  333  A    between atoms: _823  and  _824
REMARK  334  A    between atoms: _834  and  _836
REMARK  335  A    between atoms: _836  and  _837
REMARK  336  A    between atoms: _836  and  _839
REMARK  337  A    between atoms: _839  and  _840
REMARK  338  A    between atoms: _843  and  _845
REMARK  339  A    between atoms: _845  and  _846
REMARK  340  A    between atoms: _845  and  _848
REMARK  341  A    between atoms: _848  and  _849
REMARK  342  A    between atoms: _849  and  _850
REMARK  343  A    between atoms: _850  and  _851
REMARK  344  A    between atoms: _860  and  _862
REMARK  345  A    between atoms: _862  and  _863
REMARK  346  A    between atoms: _862  and  _865
REMARK  347  A    between atoms: _865  and  _866
REMARK  348  A    between atoms: _871  and  _872
REMARK  349  A    between atoms: _874  and  _876
REMARK  350  A    between atoms: _876  and  _877
REMARK  351  A    between atoms: _876  and  _879
REMARK  352  A    between atoms: _879  and  _880
REMARK  353  A    between atoms: _880  and  _881
REMARK  354  A    between atoms: _886  and  _888
REMARK  355  A    between atoms: _888  and  _889
REMARK  356  A    between atoms: _888  and  _891
REMARK  357  A    between atoms: _891  and  _892
REMARK  358  A    between atoms: _895  and  _897
REMARK  359  A    between atoms: _897  and  _898
REMARK  360  A    between atoms: _897  and  _900
REMARK  361  A    between atoms: _900  and  _901
REMARK  362  A    between atoms: _903  and  _905
REMARK  363  A    between atoms: _905  and  _906
REMARK  364  A    between atoms: _905  and  _908
REMARK  365  A    between atoms: _908  and  _909
REMARK  366  A    between atoms: _911  and  _913
REMARK  367  A    between atoms: _913  and  _914
REMARK  368  A    between atoms: _913  and  _916
REMARK  369  A    between atoms: _916  and  _917
REMARK  370  A    between atoms: _923  and  _925
REMARK  371  A    between atoms: _925  and  _926
REMARK  372  A    between atoms: _925  and  _928
REMARK  373  A    between atoms: _928  and  _929
REMARK  374  A    between atoms: _929  and  _930
REMARK  375  A    between atoms: _930  and  _931
REMARK  376  A    between atoms: _940  and  _942
REMARK  377  A    between atoms: _942  and  _943
REMARK  378  A    between atoms: _942  and  _945
REMARK  379  A    between atoms: _945  and  _946
REMARK  380  A    between atoms: _946  and  _947
REMARK  381  A    between atoms: _947  and  _948
REMARK  382  A    between atoms: _957  and  _959
REMARK  383  A    between atoms: _959  and  _960
REMARK  384  A    between atoms: _962  and  _964
REMARK  385  A    between atoms: _964  and  _965
REMARK  386  A    between atoms: _964  and  _967
REMARK  387  A    between atoms: _967  and  _968
REMARK  388  A    between atoms: _974  and  _975
REMARK  389  A    between atoms: _980  and  _982
REMARK  390  A    between atoms: _982  and  _983
REMARK  391  A    between atoms: _982  and  _985
REMARK  392  A    between atoms: _985  and  _986
REMARK  393  A    between atoms: _996  and  _998
REMARK  394  A    between atoms: _998  and  _999
REMARK  395  A    between atoms: _998  and  _1001
REMARK  396  A    between atoms: _1001  and  _1002
REMARK  397  A    between atoms: _1002  and  _1003
REMARK  398  A    between atoms: _1003  and  _1004
REMARK  399  A    between atoms: _1013  and  _1015
REMARK  400  A    between atoms: _1015  and  _1016
REMARK  401  A    between atoms: _1015  and  _1018
REMARK  402  A    between atoms: _1018  and  _1019
REMARK  403  A    between atoms: _1021  and  _1023
REMARK  404  A    between atoms: _1023  and  _1024
REMARK  405  A    between atoms: _1027  and  _1029
REMARK  406  A    between atoms: _1029  and  _1030
REMARK  407  A    between atoms: _1029  and  _1032
REMARK  408  A    between atoms: _1032  and  _1033
REMARK  409  A    between atoms: _1036  and  _1038
REMARK  410  A    between atoms: _1038  and  _1039
REMARK  411  A    between atoms: _1038  and  _1041
REMARK  412  A    between atoms: _1041  and  _1042
REMARK  413  A    between atoms: _1042  and  _1043
REMARK  414  A    between atoms: _1043  and  _1044
REMARK  415  A    between atoms: _1053  and  _1055
REMARK  416  A    between atoms: _1055  and  _1056
REMARK  417  A    between atoms: _1055  and  _1058
REMARK  418  A    between atoms: _1061  and  _1063
REMARK  419  A    between atoms: _1063  and  _1064
REMARK  420  A    between atoms: _1066  and  _1068
REMARK  421  A    between atoms: _1068  and  _1069
REMARK  422  A    between atoms: _1068  and  _1071
REMARK  423  A    between atoms: _1071  and  _1072
REMARK                            x       y       z     vdW  Elec       q    Type
REMARK                         _______ _______ _______ _____ _____    ______ ____
ROOT
ATOM      1  O   HOH     1      22.844  31.134  50.593  0.00  0.00    +0.000 OA
ENDROOT
TORSDOF 0
REMARK  Name = ../refined-set-2016/1fo0/1fo0_pocket.pdb
REMARK  423 active torsions:
REMARK  status: ('A' for Active; 'I' for Inactive)
REMARK    1  A    between atoms: _1  and  _3
REMARK    2  A    between atoms: _3  and  _4
REMARK    3  A    between atoms: _3  and  _6
REMARK    4  A    between atoms: _6  and  _7
REMARK    5  A    between atoms: _10  and  _12
REMARK    6  A    between atoms: _12  and  _13
REMARK    7  A    between atoms: _12  and  _15
REMARK    8  A    between atoms: _15  and  _16
REMARK    9  A    between atoms: _16  and  _17
REMARK   10  A    between atoms: _17  and  _18
REMARK   11  A    between atoms: _27  and  _29
REMARK   12  A    between atoms: _29  and  _30
REMARK   13  A    between atoms: _29  and  _32
REMARK   14  A    between atoms: _32  and  _33
REMARK   15  A    between atoms: _38  and  _39
REMARK   16  A    between atoms: _41  and  _43
REMARK   17  A    between atoms: _43  and  _44
REMARK   18  A    between atoms: _43  and  _46
REMARK   19  A    between atoms: _46  and  _47
REMARK   20  A    between atoms: _53  and  _55
REMARK   21  A    between atoms: _55  and  _56
REMARK   22  A    between atoms: _55  and  _58
REMARK   23  A    between atoms: _61  and  _63
REMARK   24  A    between atoms: _63  and  _64
REMARK   25  A    between atoms: _63  and  _66
REMARK   26  A    between atoms: _66  and  _67
REMARK   27  A    between atoms: _70  and  _72
REMARK   28  A    between atoms: _72  and  _73
REMARK   29  A    between atoms: _72  and  _75
REMARK   30  A    between atoms: _75  and  _76
REMARK   31  A    between atoms: _81  and  _82
REMARK   32  A    between atoms: _84  and  _86
REMARK   33  A    between atoms: _86  and  _87
REMARK   34  A    between atoms: _86  and  _89
REMARK   35  A    between atoms: _89  and  _90
REMARK   36  A    between atoms: _90  and  _91
REMARK   37  A    between atoms: _93  and  _95
REMARK   38  A    between atoms: _95  and  _96
REMARK   39  A    between atoms: _95  and  _98
REMARK   40  A    between atoms: _98  and  _99
REMARK   41  A    between atoms: _99  and  _100
REMARK   42  A    between atoms: _103  and  _105
REMARK   43  A    between atoms: _105  and  _106
REMARK   44  A    between atoms: _105  and  _108
REMARK   45  A    between atoms: _111  and  _113
REMARK   46  A    between atoms: _113  and  _114
REMARK   47  A    between atoms: _116  and  _118
REMARK   48  A    between atoms: _118  and  _119
REMARK   49  A    between atoms: _118  and  _121
REMARK   50  A    between atoms: _121  and  _122
REMARK   51  A    between atoms: _128  and  _130
REMARK   52  A    between atoms: _130  and  _131
REMARK   53  A    between atoms: _130  and  _133
REMARK   54  A    between atoms: _136  and  _138
REMARK   55  A    between atoms: _138  and  _139
REMARK   56  A    between atoms: _138  and  _141
REMARK   57  A    between atoms: _141  and  _142
REMARK   58  A    between atoms: _148  and  _150
REMARK   59  A    between atoms: _150  and  _151
REMARK   60  A    between atoms: _150  and  _153
REMARK   61  A    between atoms: _153  and  _154
REMARK   62  A    between atoms: _159  and  _160
REMARK   63  A    between atoms: _162  and  _164
REMARK   64  A    between atoms: _164  and  _165
REMARK   65  A    between atoms: _164  and  _167
REMARK   66  A    between atoms: _167  and  _168
REMARK   67  A    between atoms: _168  and  _169
REMARK   68  A    between atoms: _171  and  _173
REMARK   69  A    between atoms: _173  and  _174
REMARK   70  A    between atoms: _173  and  _176
REMARK   71  A    between atoms: _176  and  _177
REMARK   72  A    between atoms: _177  and  _178
REMARK   73  A    between atoms: _181  and  _183
REMARK   74  A    between atoms: _183  and  _184
REMARK   75  A    between atoms: _183  and  _186
REMARK   76  A    between atoms: _186  and  _187
REMARK   77  A    between atoms: _192  and  _193
REMARK   78  A    between atoms: _195  and  _197
REMARK   79  A    between atoms: _197  and  _198
REMARK   80  A    between atoms: _197  and  _200
REMARK   81  A    between atoms: _200  and  _201
REMARK   82  A    between atoms: _201  and  _202
REMARK   83  A    between atoms: _202  and  _203
REMARK   84  A    between atoms: _212  and  _214
REMARK   85  A    between atoms: _214  and  _215
REMARK   86  A    between atoms: _214  and  _217
REMARK   87  A    between atoms: _217  and  _218
REMARK   88  A    between atoms: _218  and  _219
REMARK   89  A    between atoms: _222  and  _224
REMARK   90  A    between atoms: _224  and  _225
REMARK   91  A    between atoms: _224  and  _227
REMARK   92  A    between atoms: _227  and  _228
REMARK   93  A    between atoms: _228  and  _229
REMARK   94  A    between atoms: _234  and  _236
REMARK   95  A    between atoms: _236  and  _237
REMARK   96  A    between atoms: _236  and  _239
REMARK   97  A    between atoms: _239  and  _240
REMARK   98  A    between atoms: _240  and  _241
REMARK   99  A    between atoms: _241  and  _242
REMARK  100  A    between atoms: _242  and  _243
REMARK  101  A    between atoms: _247  and  _249
REMARK  102  A    between atoms: _249  and  _250
REMARK  103  A    between atoms: _253  and  _255
REMARK  104  A    between atoms: _255  and  _256
REMARK  105  A    between atoms: _255  and  _258
REMARK  106  A    between atoms: _258  and  _259
REMARK  107  A    between atoms: _259  and  _260
REMARK  108  A    between atoms: _260  and  _261
REMARK  109  A    between atoms: _261  and  _262
REMARK  110  A    between atoms: _266  and  _268
REMARK  111  A    between atoms: _268  and  _269
REMARK  112  A    between atoms: _271  and  _273
REMARK  113  A    between atoms: _273  and  _274
REMARK  114  A    between atoms: _273  and  _276
REMARK  115  A    between atoms: _276  and  _277
REMARK  116  A    between atoms: _282  and  _284
REMARK  117  A    between atoms: _284  and  _285
REMARK  118  A    between atoms: _284  and  _287
REMARK  119  A    between atoms: _287  and  _288
REMARK  120  A    between atoms: _288  and  _289
REMARK  121  A    between atoms: _292  and  _294
REMARK  122  A    between atoms: _294  and  _295
REMARK  123  A    between atoms: _294  and  _297
REMARK  124  A    between atoms: _297  and  _298
REMARK  125  A    between atoms: _298  and  _299
REMARK  126  A    between atoms: _304  and  _306
REMARK  127  A    between atoms: _306  and  _307
REMARK  128  A    between atoms: _306  and  _309
REMARK  129  A    between atoms: _309  and  _310
REMARK  130  A    between atoms: _312  and  _314
REMARK  131  A    between atoms: _314  and  _315
REMARK  132  A    between atoms: _314  and  _317
REMARK  133  A    between atoms: _317  and  _318
REMARK  134  A    between atoms: _324  and  _326
REMARK  135  A    between atoms: _326  and  _327
REMARK  136  A    between atoms: _326  and  _329
REMARK  137  A    between atoms: _329  and  _330
REMARK  138  A    between atoms: _330  and  _331
REMARK  139  A    between atoms: _331  and  _332
REMARK  140  A    between atoms: _341  and  _343
REMARK  141  A    between atoms: _343  and  _344
REMARK  142  A    between atoms: _343  and  _346
REMARK  143  A    between atoms: _349  and  _351
REMARK  144  A    between atoms: _351  and  _352
REMARK  145  A    between atoms: _351  and  _354
REMARK  146  A    between atoms: _354  and  _355
REMARK  147  A    between atoms: _358  and  _360
REMARK  148  A    between atoms: _360  and  _361
REMARK  149  A    between atoms: _360  and  _363
REMARK  150  A    between atoms: _363  and  _364
REMARK  151  A    between atoms: _367  and  _369
REMARK  152  A    between atoms: _369  and  _370
REMARK  153  A    between atoms: _369  and  _372
REMARK  154  A    between atoms: _372  and  _373
REMARK  155  A    between atoms: _373  and  _374
REMARK  156  A    between atoms: _374  and  _375
REMARK  157  A    between atoms: _384  and  _386
REMARK  158  A    between atoms: _386  and  _387
REMARK  159  A    between atoms: _386  and  _389
REMARK  160  A    between atoms: _389  and  _390
REMARK  161  A    between atoms: _393  and  _395
REMARK  162  A    between atoms: _395  and  _396
REMARK  163  A    between atoms: _395  and  _398
REMARK  164  A    between atoms: _398  and  _399
REMARK  165  A    between atoms: _402  and  _404
REMARK  166  A    between atoms: _404  and  _405
REMARK  167  A    between atoms: _404  and  _407
REMARK  168  A    between atoms: _407  and  _408
REMARK  169  A    between atoms: _411  and  _413
REMARK  170  A    between atoms: _413  and  _414
REMARK  171  A    between atoms: _413  and  _416
REMARK  172  A    between atoms: _416  and  _417
REMARK  173  A    between atoms: _422  and  _423
REMARK  174  A    between atoms: _425  and  _427
REMARK  175  A    between atoms: _427  and  _428
REMARK  176  A    between atoms: _427  and  _430
REMARK  177  A    between atoms: _430  and  _431
REMARK  178  A    between atoms: _436  and  _437
REMARK  179  A    between atoms: _439  and  _441
REMARK  180  A    between atoms: _441  and  _442
REMARK  181  A    between atoms: _441  and  _444
REMARK  182  A    between atoms: _444  and  _445
REMARK  183  A    between atoms: _448  and  _450
REMARK  184  A    between atoms: _450  and  _451
REMARK  185  A    between atoms: _450  and  _453
REMARK  186  A    between atoms: _456  and  _458
REMARK  187  A    between atoms: _458  and  _459
REMARK  188  A    between atoms: _458  and  _461
REMARK  189  A    between atoms: _461  and  _462
REMARK  190  A    between atoms: _465  and  _467
REMARK  191  A    between atoms: _467  and  _468
REMARK  192  A    between atoms: _467  and  _470
REMARK  193  A    between atoms: _470  and  _471
REMARK  194  A    between atoms: _473  and  _475
REMARK  195  A    between atoms: _475  and  _476
REMARK  196  A    between atoms: _478  and  _480
REMARK  197  A    between atoms: _480  and  _481
REMARK  198  A    between atoms: _480  and  _483
REMARK  199  A    between atoms: _483  and  _484
REMARK  200  A    between atoms: _489  and  _490
REMARK  201  A    between atoms: _492  and  _494
REMARK  202  A    between atoms: _494  and  _495
REMARK  203  A    between atoms: _494  and  _497
REMARK  204  A    between atoms: _497  and  _498
REMARK  205  A    between atoms: _498  and  _499
REMARK  206  A    between atoms: _504  and  _506
REMARK  207  A    between atoms: _506  and  _507
REMARK  208  A    between atoms: _506  and  _509
REMARK  209  A    between atoms: _509  and  _510
REMARK  210  A    between atoms: _510  and  _511
REMARK  211  A    between atoms: _516  and  _518
REMARK  212  A    between atoms: _518  and  _519
REMARK  213  A    between atoms: _518  and  _521
REMARK  214  A    between atoms: _521  and  _522
REMARK  215  A    between atoms: _527  and  _528
REMARK  216  A    between atoms: _530  and  _532
REMARK  217  A    between atoms: _532  and  _533
REMARK  218  A    between atoms: _532  and  _535
REMARK  219  A    between atoms: _535  and  _536
REMARK  220  A    between atoms: _541  and  _542
REMARK  221  A    between atoms: _544  and  _546
REMARK  222  A    between atoms: _546  and  _547
REMARK  223  A    between atoms: _546  and  _549
REMARK  224  A    between atoms: _549  and  _550
REMARK  225  A    between atoms: _555  and  _556
REMARK  226  A    between atoms: _558  and  _560
REMARK  227  A    between atoms: _560  and  _561
REMARK  228  A    between atoms: _560  and  _563
REMARK  229  A    between atoms: _563  and  _564
REMARK  230  A    between atoms: _567  and  _569
REMARK  231  A    between atoms: _569  and  _570
REMARK  232  A    between atoms: _569  and  _572
REMARK  233  A    between atoms: _572  and  _573
REMARK  234  A    between atoms: _583  and  _585
REMARK  235  A    between atoms: _585  and  _586
REMARK  236  A    between atoms: _589  and  _591
REMARK  237  A    between atoms: _591  and  _592
REMARK  238  A    between atoms: _595  and  _597
REMARK  239  A    between atoms: _597  and  _598
REMARK  240  A    between atoms: _597  and  _600
REMARK  241  A    between atoms: _600  and  _601
REMARK  242  A    between atoms: _604  and  _606
REMARK  243  A    between atoms: _606  and  _607
REMARK  244  A    between atoms: _606  and  _609
REMARK  245  A    between atoms: _609  and  _610
REMARK  246  A    between atoms: _613  and  _615
REMARK  247  A    between atoms: _615  and  _616
REMARK  248  A    between atoms: _615  and  _618
REMARK  249  A    between atoms: _618  and  _619
REMARK  250  A    between atoms: _622  and  _624
REMARK  251  A    between atoms: _624  and  _625
REMARK  252  A    between atoms: _624  and  _627
REMARK  253  A    between atoms: _627  and  _628
REMARK  254  A    between atoms: _628  and  _629
REMARK  255  A    between atoms: _629  and  _630
REMARK  256  A    between atoms: _630  and  _631
REMARK  257  A    between atoms: _635  and  _637
REMARK  258  A    between atoms: _637  and  _638
REMARK  259  A    between atoms: _637  and  _640
REMARK  260  A    between atoms: _640  and  _641
REMARK  261  A    between atoms: _646  and  _648
REMARK  262  A    between atoms: _648  and  _649
REMARK  263  A    between atoms: _648  and  _651
REMARK  264  A    between atoms: _651  and  _652
REMARK  265  A    between atoms: _652  and  _653
REMARK  266  A    between atoms: _653  and  _654
REMARK  267  A    between atoms: _654  and  _655
REMARK  268  A    between atoms: _659  and  _661
REMARK  269  A    between atoms: _661  and  _662
REMARK  270  A    between atoms: _661  and  _664
REMARK  271  A    between atoms: _664  and  _665
REMARK  272  A    between atoms: _675  and  _677
REMARK  273  A    between atoms: _677  and  _678
REMARK  274  A    between atoms: _681  and  _683
REMARK  275  A    between atoms: _683  and  _684
REMARK  276  A    between atoms: _686  and  _688
REMARK  277  A    between atoms: _688  and  _689
REMARK  278  A    between atoms: _688  and  _691
REMARK  279  A    between atoms: _691  and  _692
REMARK  280  A    between atoms: _692  and  _693
REMARK  281  A    between atoms: _696  and  _698
REMARK  282  A    between atoms: _698  and  _699
REMARK  283  A    between atoms: _702  and  _704
REMARK  284  A    between atoms: _704  and  _705
REMARK  285  A    between atoms: _704  and  _707
REMARK  286  A    between atoms: _707  and  _708
REMARK  287  A    between atoms: _708  and  _709
REMARK  288  A    between atoms: _712  and  _714
REMARK  289  A    between atoms: _714  and  _715
REMARK  290  A    between atoms: _714  and  _717
REMARK  291  A    between atoms: _717  and  _718
REMARK  292  A    between atoms: _718  and  _719
REMARK  293  A    between atoms: _719  and  _720
REMARK  294  A    between atoms: _729  and  _731
REMARK  295  A    between atoms: _731  and  _732
REMARK  296  A    between atoms: _731  and  _734
REMARK  297  A    between atoms: _734  and  _735
REMARK  298  A    between atoms: _738  and  _740
REMARK  299  A    between atoms: _740  and  _741
REMARK  300  A    between atoms: _740  and  _743
REMARK  301  A    between atoms: _743  and  _744
REMARK  302  A    between atoms: _744  and  _745
REMARK  303  A    between atoms: _745  and  _746
REMARK  304  A    between atoms: _755  and  _757
REMARK  305  A    between atoms: _757  and  _758
REMARK  306  A    between atoms: _761  and  _763
REMARK  307  A    between atoms: _763  and  _764
REMARK  308  A    between atoms: _763  and  _766
REMARK  309  A    between atoms: _766  and  _767
REMARK  310  A    between atoms: _772  and  _773
REMARK  311  A    between atoms: _775  and  _777
REMARK  312  A    between atoms: _777  and  _778
REMARK  313  A    between atoms: _777  and  _780
REMARK  314  A    between atoms: _780  and  _781
REMARK  315  A    between atoms: _784  and  _786
REMARK  316  A    between atoms: _786  and  _787
REMARK  317  A    between atoms: _786  and  _789
REMARK  318  A    between atoms: _789  and  _790
REMARK  319  A    between atoms: _793  and  _795
REMARK  320  A    between atoms: _795  and  _796
REMARK  321  A    between atoms: _795  and  _798
REMARK  322  A    between atoms: _800  and  _802
REMARK  323  A    between atoms: _802  and  _803
REMARK  324  A    between atoms: _802  and  _805
REMARK  325  A    between atoms: _808  and  _810
REMARK  326  A    between atoms: _810  and  _811
REMARK  327  A    between atoms: _810  and  _813
REMARK  328  A    between atoms: _813  and  _814
REMARK  329  A    between atoms: _814  and  _815
REMARK  330  A    between atoms: _818  and  _820
REMARK  331  A    between atoms: _820  and  _821
REMARK  332  A    between atoms: _820  and  _823
REMARK  333  A    between atoms: _823  and  _824
REMARK  334  A    between atoms: _834  and  _836
REMARK  335  A    between atoms: _836  and  _837
REMARK  336  A    between atoms: _836  and  _839
REMARK  337  A    between atoms: _839  and  _840
REMARK  338  A    between atoms: _843  and  _845
REMARK  339  A    between atoms: _845  and  _846
REMARK  340  A    between atoms: _845  and  _848
REMARK  341  A    between atoms: _848  and  _849
REMARK  342  A    between atoms: _849  and  _850
REMARK  343  A    between atoms: _850  and  _851
REMARK  344  A    between atoms: _860  and  _862
REMARK  345  A    between atoms: _862  and  _863
REMARK  346  A    between atoms: _862  and  _865
REMARK  347  A    between atoms: _865  and  _866
REMARK  348  A    between atoms: _871  and  _872
REMARK  349  A    between atoms: _874  and  _876
REMARK  350  A    between atoms: _876  and  _877
REMARK  351  A    between atoms: _876  and  _879
REMARK  352  A    between atoms: _879  and  _880
REMARK  353  A    between atoms: _880  and  _881
REMARK  354  A    between atoms: _886  and  _888
REMARK  355  A    between atoms: _888  and  _889
REMARK  356  A    between atoms: _888  and  _891
REMARK  357  A    between atoms: _891  and  _892
REMARK  358  A    between atoms: _895  and  _897
REMARK  359  A    between atoms: _897  and  _898
REMARK  360  A    between atoms: _897  and  _900
REMARK  361  A    between atoms: _900  and  _901
REMARK  362  A    between atoms: _903  and  _905
REMARK  363  A    between atoms: _905  and  _906
REMARK  364  A    between atoms: _905  and  _908
REMARK  365  A    between atoms: _908  and  _909
REMARK  366  A    between atoms: _911  and  _913
REMARK  367  A    between atoms: _913  and  _914
REMARK  368  A    between atoms: _913  and  _916
REMARK  369  A    between atoms: _916  and  _917
REMARK  370  A    between atoms: _923  and  _925
REMARK  371  A    between atoms: _925  and  _926
REMARK  372  A    between atoms: _925  and  _928
REMARK  373  A    between atoms: _928  and  _929
REMARK  374  A    between atoms: _929  and  _930
REMARK  375  A    between atoms: _930  and  _931
REMARK  376  A    between atoms: _940  and  _942
REMARK  377  A    between atoms: _942  and  _943
REMARK  378  A    between atoms: _942  and  _945
REMARK  379  A    between atoms: _945  and  _946
REMARK  380  A    between atoms: _946  and  _947
REMARK  381  A    between atoms: _947  and  _948
REMARK  382  A    between atoms: _957  and  _959
REMARK  383  A    between atoms: _959  and  _960
REMARK  384  A    between atoms: _962  and  _964
REMARK  385  A    between atoms: _964  and  _965
REMARK  386  A    between atoms: _964  and  _967
REMARK  387  A    between atoms: _967  and  _968
REMARK  388  A    between atoms: _974  and  _975
REMARK  389  A    between atoms: _980  and  _982
REMARK  390  A    between atoms: _982  and  _983
REMARK  391  A    between atoms: _982  and  _985
REMARK  392  A    between atoms: _985  and  _986
REMARK  393  A    between atoms: _996  and  _998
REMARK  394  A    between atoms: _998  and  _999
REMARK  395  A    between atoms: _998  and  _1001
REMARK  396  A    between atoms: _1001  and  _1002
REMARK  397  A    between atoms: _1002  and  _1003
REMARK  398  A    between atoms: _1003  and  _1004
REMARK  399  A    between atoms: _1013  and  _1015
REMARK  400  A    between atoms: _1015  and  _1016
REMARK  401  A    between atoms: _1015  and  _1018
REMARK  402  A    between atoms: _1018  and  _1019
REMARK  403  A    between atoms: _1021  and  _1023
REMARK  404  A    between atoms: _1023  and  _1024
REMARK  405  A    between atoms: _1027  and  _1029
REMARK  406  A    between atoms: _1029  and  _1030
REMARK  407  A    between atoms: _1029  and  _1032
REMARK  408  A    between atoms: _1032  and  _1033
REMARK  409  A    between atoms: _1036  and  _1038
REMARK  410  A    between atoms: _1038  and  _1039
REMARK  411  A    between atoms: _1038  and  _1041
REMARK  412  A    between atoms: _1041  and  _1042
REMARK  413  A    between atoms: _1042  and  _1043
REMARK  414  A    between atoms: _1043  and  _1044
REMARK  415  A    between atoms: _1053  and  _1055
REMARK  416  A    between atoms: _1055  and  _1056
REMARK  417  A    between atoms: _1055  and  _1058
REMARK  418  A    between atoms: _1061  and  _1063
REMARK  419  A    between atoms: _1063  and  _1064
REMARK  420  A    between atoms: _1066  and  _1068
REMARK  421  A    between atoms: _1068  and  _1069
REMARK  422  A    between atoms: _1068  and  _1071
REMARK  423  A    between atoms: _1071  and  _1072
REMARK                            x       y       z     vdW  Elec       q    Type
REMARK                         _______ _______ _______ _____ _____    ______ ____
ROOT
ATOM      1  O   HOH     1      12.624  34.186  57.713  0.00  0.00    +0.000 OA
ENDROOT
TORSDOF 0
REMARK  Name = ../refined-set-2016/1fo0/1fo0_pocket.pdb
REMARK  423 active torsions:
REMARK  status: ('A' for Active; 'I' for Inactive)
REMARK    1  A    between atoms: _1  and  _3
REMARK    2  A    between atoms: _3  and  _4
REMARK    3  A    between atoms: _3  and  _6
REMARK    4  A    between atoms: _6  and  _7
REMARK    5  A    between atoms: _10  and  _12
REMARK    6  A    between atoms: _12  and  _13
REMARK    7  A    between atoms: _12  and  _15
REMARK    8  A    between atoms: _15  and  _16
REMARK    9  A    between atoms: _16  and  _17
REMARK   10  A    between atoms: _17  and  _18
REMARK   11  A    between atoms: _27  and  _29
REMARK   12  A    between atoms: _29  and  _30
REMARK   13  A    between atoms: _29  and  _32
REMARK   14  A    between atoms: _32  and  _33
REMARK   15  A    between atoms: _38  and  _39
REMARK   16  A    between atoms: _41  and  _43
REMARK   17  A    between atoms: _43  and  _44
REMARK   18  A    between atoms: _43  and  _46
REMARK   19  A    between atoms: _46  and  _47
REMARK   20  A    between atoms: _53  and  _55
REMARK   21  A    between atoms: _55  and  _56
REMARK   22  A    between atoms: _55  and  _58
REMARK   23  A    between atoms: _61  and  _63
REMARK   24  A    between atoms: _63  and  _64
REMARK   25  A    between atoms: _63  and  _66
REMARK   26  A    between atoms: _66  and  _67
REMARK   27  A    between atoms: _70  and  _72
REMARK   28  A    between atoms: _72  and  _73
REMARK   29  A    between atoms: _72  and  _75
REMARK   30  A    between atoms: _75  and  _76
REMARK   31  A    between atoms: _81  and  _82
REMARK   32  A    between atoms: _84  and  _86
REMARK   33  A    between atoms: _86  and  _87
REMARK   34  A    between atoms: _86  and  _89
REMARK   35  A    between atoms: _89  and  _90
REMARK   36  A    between atoms: _90  and  _91
REMARK   37  A    between atoms: _93  and  _95
REMARK   38  A    between atoms: _95  and  _96
REMARK   39  A    between atoms: _95  and  _98
REMARK   40  A    between atoms: _98  and  _99
REMARK   41  A    between atoms: _99  and  _100
REMARK   42  A    between atoms: _103  and  _105
REMARK   43  A    between atoms: _105  and  _106
REMARK   44  A    between atoms: _105  and  _108
REMARK   45  A    between atoms: _111  and  _113
REMARK   46  A    between atoms: _113  and  _114
REMARK   47  A    between atoms: _116  and  _118
REMARK   48  A    between atoms: _118  and  _119
REMARK   49  A    between atoms: _118  and  _121
REMARK   50  A    between atoms: _121  and  _122
REMARK   51  A    between atoms: _128  and  _130
REMARK   52  A    between atoms: _130  and  _131
REMARK   53  A    between atoms: _130  and  _133
REMARK   54  A    between atoms: _136  and  _138
REMARK   55  A    between atoms: _138  and  _139
REMARK   56  A    between atoms: _138  and  _141
REMARK   57  A    between atoms: _141  and  _142
REMARK   58  A    between atoms: _148  and  _150
REMARK   59  A    between atoms: _150  and  _151
REMARK   60  A    between atoms: _150  and  _153
REMARK   61  A    between atoms: _153  and  _154
REMARK   62  A    between atoms: _159  and  _160
REMARK   63  A    between atoms: _162  and  _164
REMARK   64  A    between atoms: _164  and  _165
REMARK   65  A    between atoms: _164  and  _167
REMARK   66  A    between atoms: _167  and  _168
REMARK   67  A    between atoms: _168  and  _169
REMARK   68  A    between atoms: _171  and  _173
REMARK   69  A    between atoms: _173  and  _174
REMARK   70  A    between atoms: _173  and  _176
REMARK   71  A    between atoms: _176  and  _177
REMARK   72  A    between atoms: _177  and  _178
REMARK   73  A    between atoms: _181  and  _183
REMARK   74  A    between atoms: _183  and  _184
REMARK   75  A    between atoms: _183  and  _186
REMARK   76  A    between atoms: _186  and  _187
REMARK   77  A    between atoms: _192  and  _193
REMARK   78  A    between atoms: _195  and  _197
REMARK   79  A    between atoms: _197  and  _198
REMARK   80  A    between atoms: _197  and  _200
REMARK   81  A    between atoms: _200  and  _201
REMARK   82  A    between atoms: _201  and  _202
REMARK   83  A    between atoms: _202  and  _203
REMARK   84  A    between atoms: _212  and  _214
REMARK   85  A    between atoms: _214  and  _215
REMARK   86  A    between atoms: _214  and  _217
REMARK   87  A    between atoms: _217  and  _218
REMARK   88  A    between atoms: _218  and  _219
REMARK   89  A    between atoms: _222  and  _224
REMARK   90  A    between atoms: _224  and  _225
REMARK   91  A    between atoms: _224  and  _227
REMARK   92  A    between atoms: _227  and  _228
REMARK   93  A    between atoms: _228  and  _229
REMARK   94  A    between atoms: _234  and  _236
REMARK   95  A    between atoms: _236  and  _237
REMARK   96  A    between atoms: _236  and  _239
REMARK   97  A    between atoms: _239  and  _240
REMARK   98  A    between atoms: _240  and  _241
REMARK   99  A    between atoms: _241  and  _242
REMARK  100  A    between atoms: _242  and  _243
REMARK  101  A    between atoms: _247  and  _249
REMARK  102  A    between atoms: _249  and  _250
REMARK  103  A    between atoms: _253  and  _255
REMARK  104  A    between atoms: _255  and  _256
REMARK  105  A    between atoms: _255  and  _258
REMARK  106  A    between atoms: _258  and  _259
REMARK  107  A    between atoms: _259  and  _260
REMARK  108  A    between atoms: _260  and  _261
REMARK  109  A    between atoms: _261  and  _262
REMARK  110  A    between atoms: _266  and  _268
REMARK  111  A    between atoms: _268  and  _269
REMARK  112  A    between atoms: _271  and  _273
REMARK  113  A    between atoms: _273  and  _274
REMARK  114  A    between atoms: _273  and  _276
REMARK  115  A    between atoms: _276  and  _277
REMARK  116  A    between atoms: _282  and  _284
REMARK  117  A    between atoms: _284  and  _285
REMARK  118  A    between atoms: _284  and  _287
REMARK  119  A    between atoms: _287  and  _288
REMARK  120  A    between atoms: _288  and  _289
REMARK  121  A    between atoms: _292  and  _294
REMARK  122  A    between atoms: _294  and  _295
REMARK  123  A    between atoms: _294  and  _297
REMARK  124  A    between atoms: _297  and  _298
REMARK  125  A    between atoms: _298  and  _299
REMARK  126  A    between atoms: _304  and  _306
REMARK  127  A    between atoms: _306  and  _307
REMARK  128  A    between atoms: _306  and  _309
REMARK  129  A    between atoms: _309  and  _310
REMARK  130  A    between atoms: _312  and  _314
REMARK  131  A    between atoms: _314  and  _315
REMARK  132  A    between atoms: _314  and  _317
REMARK  133  A    between atoms: _317  and  _318
REMARK  134  A    between atoms: _324  and  _326
REMARK  135  A    between atoms: _326  and  _327
REMARK  136  A    between atoms: _326  and  _329
REMARK  137  A    between atoms: _329  and  _330
REMARK  138  A    between atoms: _330  and  _331
REMARK  139  A    between atoms: _331  and  _332
REMARK  140  A    between atoms: _341  and  _343
REMARK  141  A    between atoms: _343  and  _344
REMARK  142  A    between atoms: _343  and  _346
REMARK  143  A    between atoms: _349  and  _351
REMARK  144  A    between atoms: _351  and  _352
REMARK  145  A    between atoms: _351  and  _354
REMARK  146  A    between atoms: _354  and  _355
REMARK  147  A    between atoms: _358  and  _360
REMARK  148  A    between atoms: _360  and  _361
REMARK  149  A    between atoms: _360  and  _363
REMARK  150  A    between atoms: _363  and  _364
REMARK  151  A    between atoms: _367  and  _369
REMARK  152  A    between atoms: _369  and  _370
REMARK  153  A    between atoms: _369  and  _372
REMARK  154  A    between atoms: _372  and  _373
REMARK  155  A    between atoms: _373  and  _374
REMARK  156  A    between atoms: _374  and  _375
REMARK  157  A    between atoms: _384  and  _386
REMARK  158  A    between atoms: _386  and  _387
REMARK  159  A    between atoms: _386  and  _389
REMARK  160  A    between atoms: _389  and  _390
REMARK  161  A    between atoms: _393  and  _395
REMARK  162  A    between atoms: _395  and  _396
REMARK  163  A    between atoms: _395  and  _398
REMARK  164  A    between atoms: _398  and  _399
REMARK  165  A    between atoms: _402  and  _404
REMARK  166  A    between atoms: _404  and  _405
REMARK  167  A    between atoms: _404  and  _407
REMARK  168  A    between atoms: _407  and  _408
REMARK  169  A    between atoms: _411  and  _413
REMARK  170  A    between atoms: _413  and  _414
REMARK  171  A    between atoms: _413  and  _416
REMARK  172  A    between atoms: _416  and  _417
REMARK  173  A    between atoms: _422  and  _423
REMARK  174  A    between atoms: _425  and  _427
REMARK  175  A    between atoms: _427  and  _428
REMARK  176  A    between atoms: _427  and  _430
REMARK  177  A    between atoms: _430  and  _431
REMARK  178  A    between atoms: _436  and  _437
REMARK  179  A    between atoms: _439  and  _441
REMARK  180  A    between atoms: _441  and  _442
REMARK  181  A    between atoms: _441  and  _444
REMARK  182  A    between atoms: _444  and  _445
REMARK  183  A    between atoms: _448  and  _450
REMARK  184  A    between atoms: _450  and  _451
REMARK  185  A    between atoms: _450  and  _453
REMARK  186  A    between atoms: _456  and  _458
REMARK  187  A    between atoms: _458  and  _459
REMARK  188  A    between atoms: _458  and  _461
REMARK  189  A    between atoms: _461  and  _462
REMARK  190  A    between atoms: _465  and  _467
REMARK  191  A    between atoms: _467  and  _468
REMARK  192  A    between atoms: _467  and  _470
REMARK  193  A    between atoms: _470  and  _471
REMARK  194  A    between atoms: _473  and  _475
REMARK  195  A    between atoms: _475  and  _476
REMARK  196  A    between atoms: _478  and  _480
REMARK  197  A    between atoms: _480  and  _481
REMARK  198  A    between atoms: _480  and  _483
REMARK  199  A    between atoms: _483  and  _484
REMARK  200  A    between atoms: _489  and  _490
REMARK  201  A    between atoms: _492  and  _494
REMARK  202  A    between atoms: _494  and  _495
REMARK  203  A    between atoms: _494  and  _497
REMARK  204  A    between atoms: _497  and  _498
REMARK  205  A    between atoms: _498  and  _499
REMARK  206  A    between atoms: _504  and  _506
REMARK  207  A    between atoms: _506  and  _507
REMARK  208  A    between atoms: _506  and  _509
REMARK  209  A    between atoms: _509  and  _510
REMARK  210  A    between atoms: _510  and  _511
REMARK  211  A    between atoms: _516  and  _518
REMARK  212  A    between atoms: _518  and  _519
REMARK  213  A    between atoms: _518  and  _521
REMARK  214  A    between atoms: _521  and  _522
REMARK  215  A    between atoms: _527  and  _528
REMARK  216  A    between atoms: _530  and  _532
REMARK  217  A    between atoms: _532  and  _533
REMARK  218  A    between atoms: _532  and  _535
REMARK  219  A    between atoms: _535  and  _536
REMARK  220  A    between atoms: _541  and  _542
REMARK  221  A    between atoms: _544  and  _546
REMARK  222  A    between atoms: _546  and  _547
REMARK  223  A    between atoms: _546  and  _549
REMARK  224  A    between atoms: _549  and  _550
REMARK  225  A    between atoms: _555  and  _556
REMARK  226  A    between atoms: _558  and  _560
REMARK  227  A    between atoms: _560  and  _561
REMARK  228  A    between atoms: _560  and  _563
REMARK  229  A    between atoms: _563  and  _564
REMARK  230  A    between atoms: _567  and  _569
REMARK  231  A    between atoms: _569  and  _570
REMARK  232  A    between atoms: _569  and  _572
REMARK  233  A    between atoms: _572  and  _573
REMARK  234  A    between atoms: _583  and  _585
REMARK  235  A    between atoms: _585  and  _586
REMARK  236  A    between atoms: _589  and  _591
REMARK  237  A    between atoms: _591  and  _592
REMARK  238  A    between atoms: _595  and  _597
REMARK  239  A    between atoms: _597  and  _598
REMARK  240  A    between atoms: _597  and  _600
REMARK  241  A    between atoms: _600  and  _601
REMARK  242  A    between atoms: _604  and  _606
REMARK  243  A    between atoms: _606  and  _607
REMARK  244  A    between atoms: _606  and  _609
REMARK  245  A    between atoms: _609  and  _610
REMARK  246  A    between atoms: _613  and  _615
REMARK  247  A    between atoms: _615  and  _616
REMARK  248  A    between atoms: _615  and  _618
REMARK  249  A    between atoms: _618  and  _619
REMARK  250  A    between atoms: _622  and  _624
REMARK  251  A    between atoms: _624  and  _625
REMARK  252  A    between atoms: _624  and  _627
REMARK  253  A    between atoms: _627  and  _628
REMARK  254  A    between atoms: _628  and  _629
REMARK  255  A    between atoms: _629  and  _630
REMARK  256  A    between atoms: _630  and  _631
REMARK  257  A    between atoms: _635  and  _637
REMARK  258  A    between atoms: _637  and  _638
REMARK  259  A    between atoms: _637  and  _640
REMARK  260  A    between atoms: _640  and  _641
REMARK  261  A    between atoms: _646  and  _648
REMARK  262  A    between atoms: _648  and  _649
REMARK  263  A    between atoms: _648  and  _651
REMARK  264  A    between atoms: _651  and  _652
REMARK  265  A    between atoms: _652  and  _653
REMARK  266  A    between atoms: _653  and  _654
REMARK  267  A    between atoms: _654  and  _655
REMARK  268  A    between atoms: _659  and  _661
REMARK  269  A    between atoms: _661  and  _662
REMARK  270  A    between atoms: _661  and  _664
REMARK  271  A    between atoms: _664  and  _665
REMARK  272  A    between atoms: _675  and  _677
REMARK  273  A    between atoms: _677  and  _678
REMARK  274  A    between atoms: _681  and  _683
REMARK  275  A    between atoms: _683  and  _684
REMARK  276  A    between atoms: _686  and  _688
REMARK  277  A    between atoms: _688  and  _689
REMARK  278  A    between atoms: _688  and  _691
REMARK  279  A    between atoms: _691  and  _692
REMARK  280  A    between atoms: _692  and  _693
REMARK  281  A    between atoms: _696  and  _698
REMARK  282  A    between atoms: _698  and  _699
REMARK  283  A    between atoms: _702  and  _704
REMARK  284  A    between atoms: _704  and  _705
REMARK  285  A    between atoms: _704  and  _707
REMARK  286  A    between atoms: _707  and  _708
REMARK  287  A    between atoms: _708  and  _709
REMARK  288  A    between atoms: _712  and  _714
REMARK  289  A    between atoms: _714  and  _715
REMARK  290  A    between atoms: _714  and  _717
REMARK  291  A    between atoms: _717  and  _718
REMARK  292  A    between atoms: _718  and  _719
REMARK  293  A    between atoms: _719  and  _720
REMARK  294  A    between atoms: _729  and  _731
REMARK  295  A    between atoms: _731  and  _732
REMARK  296  A    between atoms: _731  and  _734
REMARK  297  A    between atoms: _734  and  _735
REMARK  298  A    between atoms: _738  and  _740
REMARK  299  A    between atoms: _740  and  _741
REMARK  300  A    between atoms: _740  and  _743
REMARK  301  A    between atoms: _743  and  _744
REMARK  302  A    between atoms: _744  and  _745
REMARK  303  A    between atoms: _745  and  _746
REMARK  304  A    between atoms: _755  and  _757
REMARK  305  A    between atoms: _757  and  _758
REMARK  306  A    between atoms: _761  and  _763
REMARK  307  A    between atoms: _763  and  _764
REMARK  308  A    between atoms: _763  and  _766
REMARK  309  A    between atoms: _766  and  _767
REMARK  310  A    between atoms: _772  and  _773
REMARK  311  A    between atoms: _775  and  _777
REMARK  312  A    between atoms: _777  and  _778
REMARK  313  A    between atoms: _777  and  _780
REMARK  314  A    between atoms: _780  and  _781
REMARK  315  A    between atoms: _784  and  _786
REMARK  316  A    between atoms: _786  and  _787
REMARK  317  A    between atoms: _786  and  _789
REMARK  318  A    between atoms: _789  and  _790
REMARK  319  A    between atoms: _793  and  _795
REMARK  320  A    between atoms: _795  and  _796
REMARK  321  A    between atoms: _795  and  _798
REMARK  322  A    between atoms: _800  and  _802
REMARK  323  A    between atoms: _802  and  _803
REMARK  324  A    between atoms: _802  and  _805
REMARK  325  A    between atoms: _808  and  _810
REMARK  326  A    between atoms: _810  and  _811
REMARK  327  A    between atoms: _810  and  _813
REMARK  328  A    between atoms: _813  and  _814
REMARK  329  A    between atoms: _814  and  _815
REMARK  330  A    between atoms: _818  and  _820
REMARK  331  A    between atoms: _820  and  _821
REMARK  332  A    between atoms: _820  and  _823
REMARK  333  A    between atoms: _823  and  _824
REMARK  334  A    between atoms: _834  and  _836
REMARK  335  A    between atoms: _836  and  _837
REMARK  336  A    between atoms: _836  and  _839
REMARK  337  A    between atoms: _839  and  _840
REMARK  338  A    between atoms: _843  and  _845
REMARK  339  A    between atoms: _845  and  _846
REMARK  340  A    between atoms: _845  and  _848
REMARK  341  A    between atoms: _848  and  _849
REMARK  342  A    between atoms: _849  and  _850
REMARK  343  A    between atoms: _850  and  _851
REMARK  344  A    between atoms: _860  and  _862
REMARK  345  A    between atoms: _862  and  _863
REMARK  346  A    between atoms: _862  and  _865
REMARK  347  A    between atoms: _865  and  _866
REMARK  348  A    between atoms: _871  and  _872
REMARK  349  A    between atoms: _874  and  _876
REMARK  350  A    between atoms: _876  and  _877
REMARK  351  A    between atoms: _876  and  _879
REMARK  352  A    between atoms: _879  and  _880
REMARK  353  A    between atoms: _880  and  _881
REMARK  354  A    between atoms: _886  and  _888
REMARK  355  A    between atoms: _888  and  _889
REMARK  356  A    between atoms: _888  and  _891
REMARK  357  A    between atoms: _891  and  _892
REMARK  358  A    between atoms: _895  and  _897
REMARK  359  A    between atoms: _897  and  _898
REMARK  360  A    between atoms: _897  and  _900
REMARK  361  A    between atoms: _900  and  _901
REMARK  362  A    between atoms: _903  and  _905
REMARK  363  A    between atoms: _905  and  _906
REMARK  364  A    between atoms: _905  and  _908
REMARK  365  A    between atoms: _908  and  _909
REMARK  366  A    between atoms: _911  and  _913
REMARK  367  A    between atoms: _913  and  _914
REMARK  368  A    between atoms: _913  and  _916
REMARK  369  A    between atoms: _916  and  _917
REMARK  370  A    between atoms: _923  and  _925
REMARK  371  A    between atoms: _925  and  _926
REMARK  372  A    between atoms: _925  and  _928
REMARK  373  A    between atoms: _928  and  _929
REMARK  374  A    between atoms: _929  and  _930
REMARK  375  A    between atoms: _930  and  _931
REMARK  376  A    between atoms: _940  and  _942
REMARK  377  A    between atoms: _942  and  _943
REMARK  378  A    between atoms: _942  and  _945
REMARK  379  A    between atoms: _945  and  _946
REMARK  380  A    between atoms: _946  and  _947
REMARK  381  A    between atoms: _947  and  _948
REMARK  382  A    between atoms: _957  and  _959
REMARK  383  A    between atoms: _959  and  _960
REMARK  384  A    between atoms: _962  and  _964
REMARK  385  A    between atoms: _964  and  _965
REMARK  386  A    between atoms: _964  and  _967
REMARK  387  A    between atoms: _967  and  _968
REMARK  388  A    between atoms: _974  and  _975
REMARK  389  A    between atoms: _980  and  _982
REMARK  390  A    between atoms: _982  and  _983
REMARK  391  A    between atoms: _982  and  _985
REMARK  392  A    between atoms: _985  and  _986
REMARK  393  A    between atoms: _996  and  _998
REMARK  394  A    between atoms: _998  and  _999
REMARK  395  A    between atoms: _998  and  _1001
REMARK  396  A    between atoms: _1001  and  _1002
REMARK  397  A    between atoms: _1002  and  _1003
REMARK  398  A    between atoms: _1003  and  _1004
REMARK  399  A    between atoms: _1013  and  _1015
REMARK  400  A    between atoms: _1015  and  _1016
REMARK  401  A    between atoms: _1015  and  _1018
REMARK  402  A    between atoms: _1018  and  _1019
REMARK  403  A    between atoms: _1021  and  _1023
REMARK  404  A    between atoms: _1023  and  _1024
REMARK  405  A    between atoms: _1027  and  _1029
REMARK  406  A    between atoms: _1029  and  _1030
REMARK  407  A    between atoms: _1029  and  _1032
REMARK  408  A    between atoms: _1032  and  _1033
REMARK  409  A    between atoms: _1036  and  _1038
REMARK  410  A    between atoms: _1038  and  _1039
REMARK  411  A    between atoms: _1038  and  _1041
REMARK  412  A    between atoms: _1041  and  _1042
REMARK  413  A    between atoms: _1042  and  _1043
REMARK  414  A    between atoms: _1043  and  _1044
REMARK  415  A    between atoms: _1053  and  _1055
REMARK  416  A    between atoms: _1055  and  _1056
REMARK  417  A    between atoms: _1055  and  _1058
REMARK  418  A    between atoms: _1061  and  _1063
REMARK  419  A    between atoms: _1063  and  _1064
REMARK  420  A    between atoms: _1066  and  _1068
REMARK  421  A    between atoms: _1068  and  _1069
REMARK  422  A    between atoms: _1068  and  _1071
REMARK  423  A    between atoms: _1071  and  _1072
REMARK                            x       y       z     vdW  Elec       q    Type
REMARK                         _______ _______ _______ _____ _____    ______ ____
ROOT
ATOM      1  O   HOH     1      22.912  43.420  55.821  0.00  0.00    +0.000 OA
ENDROOT
TORSDOF 0
REMARK  Name = ../refined-set-2016/1fo0/1fo0_pocket.pdb
REMARK  423 active torsions:
REMARK  status: ('A' for Active; 'I' for Inactive)
REMARK    1  A    between atoms: _1  and  _3
REMARK    2  A    between atoms: _3  and  _4
REMARK    3  A    between atoms: _3  and  _6
REMARK    4  A    between atoms: _6  and  _7
REMARK    5  A    between atoms: _10  and  _12
REMARK    6  A    between atoms: _12  and  _13
REMARK    7  A    between atoms: _12  and  _15
REMARK    8  A    between atoms: _15  and  _16
REMARK    9  A    between atoms: _16  and  _17
REMARK   10  A    between atoms: _17  and  _18
REMARK   11  A    between atoms: _27  and  _29
REMARK   12  A    between atoms: _29  and  _30
REMARK   13  A    between atoms: _29  and  _32
REMARK   14  A    between atoms: _32  and  _33
REMARK   15  A    between atoms: _38  and  _39
REMARK   16  A    between atoms: _41  and  _43
REMARK   17  A    between atoms: _43  and  _44
REMARK   18  A    between atoms: _43  and  _46
REMARK   19  A    between atoms: _46  and  _47
REMARK   20  A    between atoms: _53  and  _55
REMARK   21  A    between atoms: _55  and  _56
REMARK   22  A    between atoms: _55  and  _58
REMARK   23  A    between atoms: _61  and  _63
REMARK   24  A    between atoms: _63  and  _64
REMARK   25  A    between atoms: _63  and  _66
REMARK   26  A    between atoms: _66  and  _67
REMARK   27  A    between atoms: _70  and  _72
REMARK   28  A    between atoms: _72  and  _73
REMARK   29  A    between atoms: _72  and  _75
REMARK   30  A    between atoms: _75  and  _76
REMARK   31  A    between atoms: _81  and  _82
REMARK   32  A    between atoms: _84  and  _86
REMARK   33  A    between atoms: _86  and  _87
REMARK   34  A    between atoms: _86  and  _89
REMARK   35  A    between atoms: _89  and  _90
REMARK   36  A    between atoms: _90  and  _91
REMARK   37  A    between atoms: _93  and  _95
REMARK   38  A    between atoms: _95  and  _96
REMARK   39  A    between atoms: _95  and  _98
REMARK   40  A    between atoms: _98  and  _99
REMARK   41  A    between atoms: _99  and  _100
REMARK   42  A    between atoms: _103  and  _105
REMARK   43  A    between atoms: _105  and  _106
REMARK   44  A    between atoms: _105  and  _108
REMARK   45  A    between atoms: _111  and  _113
REMARK   46  A    between atoms: _113  and  _114
REMARK   47  A    between atoms: _116  and  _118
REMARK   48  A    between atoms: _118  and  _119
REMARK   49  A    between atoms: _118  and  _121
REMARK   50  A    between atoms: _121  and  _122
REMARK   51  A    between atoms: _128  and  _130
REMARK   52  A    between atoms: _130  and  _131
REMARK   53  A    between atoms: _130  and  _133
REMARK   54  A    between atoms: _136  and  _138
REMARK   55  A    between atoms: _138  and  _139
REMARK   56  A    between atoms: _138  and  _141
REMARK   57  A    between atoms: _141  and  _142
REMARK   58  A    between atoms: _148  and  _150
REMARK   59  A    between atoms: _150  and  _151
REMARK   60  A    between atoms: _150  and  _153
REMARK   61  A    between atoms: _153  and  _154
REMARK   62  A    between atoms: _159  and  _160
REMARK   63  A    between atoms: _162  and  _164
REMARK   64  A    between atoms: _164  and  _165
REMARK   65  A    between atoms: _164  and  _167
REMARK   66  A    between atoms: _167  and  _168
REMARK   67  A    between atoms: _168  and  _169
REMARK   68  A    between atoms: _171  and  _173
REMARK   69  A    between atoms: _173  and  _174
REMARK   70  A    between atoms: _173  and  _176
REMARK   71  A    between atoms: _176  and  _177
REMARK   72  A    between atoms: _177  and  _178
REMARK   73  A    between atoms: _181  and  _183
REMARK   74  A    between atoms: _183  and  _184
REMARK   75  A    between atoms: _183  and  _186
REMARK   76  A    between atoms: _186  and  _187
REMARK   77  A    between atoms: _192  and  _193
REMARK   78  A    between atoms: _195  and  _197
REMARK   79  A    between atoms: _197  and  _198
REMARK   80  A    between atoms: _197  and  _200
REMARK   81  A    between atoms: _200  and  _201
REMARK   82  A    between atoms: _201  and  _202
REMARK   83  A    between atoms: _202  and  _203
REMARK   84  A    between atoms: _212  and  _214
REMARK   85  A    between atoms: _214  and  _215
REMARK   86  A    between atoms: _214  and  _217
REMARK   87  A    between atoms: _217  and  _218
REMARK   88  A    between atoms: _218  and  _219
REMARK   89  A    between atoms: _222  and  _224
REMARK   90  A    between atoms: _224  and  _225
REMARK   91  A    between atoms: _224  and  _227
REMARK   92  A    between atoms: _227  and  _228
REMARK   93  A    between atoms: _228  and  _229
REMARK   94  A    between atoms: _234  and  _236
REMARK   95  A    between atoms: _236  and  _237
REMARK   96  A    between atoms: _236  and  _239
REMARK   97  A    between atoms: _239  and  _240
REMARK   98  A    between atoms: _240  and  _241
REMARK   99  A    between atoms: _241  and  _242
REMARK  100  A    between atoms: _242  and  _243
REMARK  101  A    between atoms: _247  and  _249
REMARK  102  A    between atoms: _249  and  _250
REMARK  103  A    between atoms: _253  and  _255
REMARK  104  A    between atoms: _255  and  _256
REMARK  105  A    between atoms: _255  and  _258
REMARK  106  A    between atoms: _258  and  _259
REMARK  107  A    between atoms: _259  and  _260
REMARK  108  A    between atoms: _260  and  _261
REMARK  109  A    between atoms: _261  and  _262
REMARK  110  A    between atoms: _266  and  _268
REMARK  111  A    between atoms: _268  and  _269
REMARK  112  A    between atoms: _271  and  _273
REMARK  113  A    between atoms: _273  and  _274
REMARK  114  A    between atoms: _273  and  _276
REMARK  115  A    between atoms: _276  and  _277
REMARK  116  A    between atoms: _282  and  _284
REMARK  117  A    between atoms: _284  and  _285
REMARK  118  A    between atoms: _284  and  _287
REMARK  119  A    between atoms: _287  and  _288
REMARK  120  A    between atoms: _288  and  _289
REMARK  121  A    between atoms: _292  and  _294
REMARK  122  A    between atoms: _294  and  _295
REMARK  123  A    between atoms: _294  and  _297
REMARK  124  A    between atoms: _297  and  _298
REMARK  125  A    between atoms: _298  and  _299
REMARK  126  A    between atoms: _304  and  _306
REMARK  127  A    between atoms: _306  and  _307
REMARK  128  A    between atoms: _306  and  _309
REMARK  129  A    between atoms: _309  and  _310
REMARK  130  A    between atoms: _312  and  _314
REMARK  131  A    between atoms: _314  and  _315
REMARK  132  A    between atoms: _314  and  _317
REMARK  133  A    between atoms: _317  and  _318
REMARK  134  A    between atoms: _324  and  _326
REMARK  135  A    between atoms: _326  and  _327
REMARK  136  A    between atoms: _326  and  _329
REMARK  137  A    between atoms: _329  and  _330
REMARK  138  A    between atoms: _330  and  _331
REMARK  139  A    between atoms: _331  and  _332
REMARK  140  A    between atoms: _341  and  _343
REMARK  141  A    between atoms: _343  and  _344
REMARK  142  A    between atoms: _343  and  _346
REMARK  143  A    between atoms: _349  and  _351
REMARK  144  A    between atoms: _351  and  _352
REMARK  145  A    between atoms: _351  and  _354
REMARK  146  A    between atoms: _354  and  _355
REMARK  147  A    between atoms: _358  and  _360
REMARK  148  A    between atoms: _360  and  _361
REMARK  149  A    between atoms: _360  and  _363
REMARK  150  A    between atoms: _363  and  _364
REMARK  151  A    between atoms: _367  and  _369
REMARK  152  A    between atoms: _369  and  _370
REMARK  153  A    between atoms: _369  and  _372
REMARK  154  A    between atoms: _372  and  _373
REMARK  155  A    between atoms: _373  and  _374
REMARK  156  A    between atoms: _374  and  _375
REMARK  157  A    between atoms: _384  and  _386
REMARK  158  A    between atoms: _386  and  _387
REMARK  159  A    between atoms: _386  and  _389
REMARK  160  A    between atoms: _389  and  _390
REMARK  161  A    between atoms: _393  and  _395
REMARK  162  A    between atoms: _395  and  _396
REMARK  163  A    between atoms: _395  and  _398
REMARK  164  A    between atoms: _398  and  _399
REMARK  165  A    between atoms: _402  and  _404
REMARK  166  A    between atoms: _404  and  _405
REMARK  167  A    between atoms: _404  and  _407
REMARK  168  A    between atoms: _407  and  _408
REMARK  169  A    between atoms: _411  and  _413
REMARK  170  A    between atoms: _413  and  _414
REMARK  171  A    between atoms: _413  and  _416
REMARK  172  A    between atoms: _416  and  _417
REMARK  173  A    between atoms: _422  and  _423
REMARK  174  A    between atoms: _425  and  _427
REMARK  175  A    between atoms: _427  and  _428
REMARK  176  A    between atoms: _427  and  _430
REMARK  177  A    between atoms: _430  and  _431
REMARK  178  A    between atoms: _436  and  _437
REMARK  179  A    between atoms: _439  and  _441
REMARK  180  A    between atoms: _441  and  _442
REMARK  181  A    between atoms: _441  and  _444
REMARK  182  A    between atoms: _444  and  _445
REMARK  183  A    between atoms: _448  and  _450
REMARK  184  A    between atoms: _450  and  _451
REMARK  185  A    between atoms: _450  and  _453
REMARK  186  A    between atoms: _456  and  _458
REMARK  187  A    between atoms: _458  and  _459
REMARK  188  A    between atoms: _458  and  _461
REMARK  189  A    between atoms: _461  and  _462
REMARK  190  A    between atoms: _465  and  _467
REMARK  191  A    between atoms: _467  and  _468
REMARK  192  A    between atoms: _467  and  _470
REMARK  193  A    between atoms: _470  and  _471
REMARK  194  A    between atoms: _473  and  _475
REMARK  195  A    between atoms: _475  and  _476
REMARK  196  A    between atoms: _478  and  _480
REMARK  197  A    between atoms: _480  and  _481
REMARK  198  A    between atoms: _480  and  _483
REMARK  199  A    between atoms: _483  and  _484
REMARK  200  A    between atoms: _489  and  _490
REMARK  201  A    between atoms: _492  and  _494
REMARK  202  A    between atoms: _494  and  _495
REMARK  203  A    between atoms: _494  and  _497
REMARK  204  A    between atoms: _497  and  _498
REMARK  205  A    between atoms: _498  and  _499
REMARK  206  A    between atoms: _504  and  _506
REMARK  207  A    between atoms: _506  and  _507
REMARK  208  A    between atoms: _506  and  _509
REMARK  209  A    between atoms: _509  and  _510
REMARK  210  A    between atoms: _510  and  _511
REMARK  211  A    between atoms: _516  and  _518
REMARK  212  A    between atoms: _518  and  _519
REMARK  213  A    between atoms: _518  and  _521
REMARK  214  A    between atoms: _521  and  _522
REMARK  215  A    between atoms: _527  and  _528
REMARK  216  A    between atoms: _530  and  _532
REMARK  217  A    between atoms: _532  and  _533
REMARK  218  A    between atoms: _532  and  _535
REMARK  219  A    between atoms: _535  and  _536
REMARK  220  A    between atoms: _541  and  _542
REMARK  221  A    between atoms: _544  and  _546
REMARK  222  A    between atoms: _546  and  _547
REMARK  223  A    between atoms: _546  and  _549
REMARK  224  A    between atoms: _549  and  _550
REMARK  225  A    between atoms: _555  and  _556
REMARK  226  A    between atoms: _558  and  _560
REMARK  227  A    between atoms: _560  and  _561
REMARK  228  A    between atoms: _560  and  _563
REMARK  229  A    between atoms: _563  and  _564
REMARK  230  A    between atoms: _567  and  _569
REMARK  231  A    between atoms: _569  and  _570
REMARK  232  A    between atoms: _569  and  _572
REMARK  233  A    between atoms: _572  and  _573
REMARK  234  A    between atoms: _583  and  _585
REMARK  235  A    between atoms: _585  and  _586
REMARK  236  A    between atoms: _589  and  _591
REMARK  237  A    between atoms: _591  and  _592
REMARK  238  A    between atoms: _595  and  _597
REMARK  239  A    between atoms: _597  and  _598
REMARK  240  A    between atoms: _597  and  _600
REMARK  241  A    between atoms: _600  and  _601
REMARK  242  A    between atoms: _604  and  _606
REMARK  243  A    between atoms: _606  and  _607
REMARK  244  A    between atoms: _606  and  _609
REMARK  245  A    between atoms: _609  and  _610
REMARK  246  A    between atoms: _613  and  _615
REMARK  247  A    between atoms: _615  and  _616
REMARK  248  A    between atoms: _615  and  _618
REMARK  249  A    between atoms: _618  and  _619
REMARK  250  A    between atoms: _622  and  _624
REMARK  251  A    between atoms: _624  and  _625
REMARK  252  A    between atoms: _624  and  _627
REMARK  253  A    between atoms: _627  and  _628
REMARK  254  A    between atoms: _628  and  _629
REMARK  255  A    between atoms: _629  and  _630
REMARK  256  A    between atoms: _630  and  _631
REMARK  257  A    between atoms: _635  and  _637
REMARK  258  A    between atoms: _637  and  _638
REMARK  259  A    between atoms: _637  and  _640
REMARK  260  A    between atoms: _640  and  _641
REMARK  261  A    between atoms: _646  and  _648
REMARK  262  A    between atoms: _648  and  _649
REMARK  263  A    between atoms: _648  and  _651
REMARK  264  A    between atoms: _651  and  _652
REMARK  265  A    between atoms: _652  and  _653
REMARK  266  A    between atoms: _653  and  _654
REMARK  267  A    between atoms: _654  and  _655
REMARK  268  A    between atoms: _659  and  _661
REMARK  269  A    between atoms: _661  and  _662
REMARK  270  A    between atoms: _661  and  _664
REMARK  271  A    between atoms: _664  and  _665
REMARK  272  A    between atoms: _675  and  _677
REMARK  273  A    between atoms: _677  and  _678
REMARK  274  A    between atoms: _681  and  _683
REMARK  275  A    between atoms: _683  and  _684
REMARK  276  A    between atoms: _686  and  _688
REMARK  277  A    between atoms: _688  and  _689
REMARK  278  A    between atoms: _688  and  _691
REMARK  279  A    between atoms: _691  and  _692
REMARK  280  A    between atoms: _692  and  _693
REMARK  281  A    between atoms: _696  and  _698
REMARK  282  A    between atoms: _698  and  _699
REMARK  283  A    between atoms: _702  and  _704
REMARK  284  A    between atoms: _704  and  _705
REMARK  285  A    between atoms: _704  and  _707
REMARK  286  A    between atoms: _707  and  _708
REMARK  287  A    between atoms: _708  and  _709
REMARK  288  A    between atoms: _712  and  _714
REMARK  289  A    between atoms: _714  and  _715
REMARK  290  A    between atoms: _714  and  _717
REMARK  291  A    between atoms: _717  and  _718
REMARK  292  A    between atoms: _718  and  _719
REMARK  293  A    between atoms: _719  and  _720
REMARK  294  A    between atoms: _729  and  _731
REMARK  295  A    between atoms: _731  and  _732
REMARK  296  A    between atoms: _731  and  _734
REMARK  297  A    between atoms: _734  and  _735
REMARK  298  A    between atoms: _738  and  _740
REMARK  299  A    between atoms: _740  and  _741
REMARK  300  A    between atoms: _740  and  _743
REMARK  301  A    between atoms: _743  and  _744
REMARK  302  A    between atoms: _744  and  _745
REMARK  303  A    between atoms: _745  and  _746
REMARK  304  A    between atoms: _755  and  _757
REMARK  305  A    between atoms: _757  and  _758
REMARK  306  A    between atoms: _761  and  _763
REMARK  307  A    between atoms: _763  and  _764
REMARK  308  A    between atoms: _763  and  _766
REMARK  309  A    between atoms: _766  and  _767
REMARK  310  A    between atoms: _772  and  _773
REMARK  311  A    between atoms: _775  and  _777
REMARK  312  A    between atoms: _777  and  _778
REMARK  313  A    between atoms: _777  and  _780
REMARK  314  A    between atoms: _780  and  _781
REMARK  315  A    between atoms: _784  and  _786
REMARK  316  A    between atoms: _786  and  _787
REMARK  317  A    between atoms: _786  and  _789
REMARK  318  A    between atoms: _789  and  _790
REMARK  319  A    between atoms: _793  and  _795
REMARK  320  A    between atoms: _795  and  _796
REMARK  321  A    between atoms: _795  and  _798
REMARK  322  A    between atoms: _800  and  _802
REMARK  323  A    between atoms: _802  and  _803
REMARK  324  A    between atoms: _802  and  _805
REMARK  325  A    between atoms: _808  and  _810
REMARK  326  A    between atoms: _810  and  _811
REMARK  327  A    between atoms: _810  and  _813
REMARK  328  A    between atoms: _813  and  _814
REMARK  329  A    between atoms: _814  and  _815
REMARK  330  A    between atoms: _818  and  _820
REMARK  331  A    between atoms: _820  and  _821
REMARK  332  A    between atoms: _820  and  _823
REMARK  333  A    between atoms: _823  and  _824
REMARK  334  A    between atoms: _834  and  _836
REMARK  335  A    between atoms: _836  and  _837
REMARK  336  A    between atoms: _836  and  _839
REMARK  337  A    between atoms: _839  and  _840
REMARK  338  A    between atoms: _843  and  _845
REMARK  339  A    between atoms: _845  and  _846
REMARK  340  A    between atoms: _845  and  _848
REMARK  341  A    between atoms: _848  and  _849
REMARK  342  A    between atoms: _849  and  _850
REMARK  343  A    between atoms: _850  and  _851
REMARK  344  A    between atoms: _860  and  _862
REMARK  345  A    between atoms: _862  and  _863
REMARK  346  A    between atoms: _862  and  _865
REMARK  347  A    between atoms: _865  and  _866
REMARK  348  A    between atoms: _871  and  _872
REMARK  349  A    between atoms: _874  and  _876
REMARK  350  A    between atoms: _876  and  _877
REMARK  351  A    between atoms: _876  and  _879
REMARK  352  A    between atoms: _879  and  _880
REMARK  353  A    between atoms: _880  and  _881
REMARK  354  A    between atoms: _886  and  _888
REMARK  355  A    between atoms: _888  and  _889
REMARK  356  A    between atoms: _888  and  _891
REMARK  357  A    between atoms: _891  and  _892
REMARK  358  A    between atoms: _895  and  _897
REMARK  359  A    between atoms: _897  and  _898
REMARK  360  A    between atoms: _897  and  _900
REMARK  361  A    between atoms: _900  and  _901
REMARK  362  A    between atoms: _903  and  _905
REMARK  363  A    between atoms: _905  and  _906
REMARK  364  A    between atoms: _905  and  _908
REMARK  365  A    between atoms: _908  and  _909
REMARK  366  A    between atoms: _911  and  _913
REMARK  367  A    between atoms: _913  and  _914
REMARK  368  A    between atoms: _913  and  _916
REMARK  369  A    between atoms: _916  and  _917
REMARK  370  A    between atoms: _923  and  _925
REMARK  371  A    between atoms: _925  and  _926
REMARK  372  A    between atoms: _925  and  _928
REMARK  373  A    between atoms: _928  and  _929
REMARK  374  A    between atoms: _929  and  _930
REMARK  375  A    between atoms: _930  and  _931
REMARK  376  A    between atoms: _940  and  _942
REMARK  377  A    between atoms: _942  and  _943
REMARK  378  A    between atoms: _942  and  _945
REMARK  379  A    between atoms: _945  and  _946
REMARK  380  A    between atoms: _946  and  _947
REMARK  381  A    between atoms: _947  and  _948
REMARK  382  A    between atoms: _957  and  _959
REMARK  383  A    between atoms: _959  and  _960
REMARK  384  A    between atoms: _962  and  _964
REMARK  385  A    between atoms: _964  and  _965
REMARK  386  A    between atoms: _964  and  _967
REMARK  387  A    between atoms: _967  and  _968
REMARK  388  A    between atoms: _974  and  _975
REMARK  389  A    between atoms: _980  and  _982
REMARK  390  A    between atoms: _982  and  _983
REMARK  391  A    between atoms: _982  and  _985
REMARK  392  A    between atoms: _985  and  _986
REMARK  393  A    between atoms: _996  and  _998
REMARK  394  A    between atoms: _998  and  _999
REMARK  395  A    between atoms: _998  and  _1001
REMARK  396  A    between atoms: _1001  and  _1002
REMARK  397  A    between atoms: _1002  and  _1003
REMARK  398  A    between atoms: _1003  and  _1004
REMARK  399  A    between atoms: _1013  and  _1015
REMARK  400  A    between atoms: _1015  and  _1016
REMARK  401  A    between atoms: _1015  and  _1018
REMARK  402  A    between atoms: _1018  and  _1019
REMARK  403  A    between atoms: _1021  and  _1023
REMARK  404  A    between atoms: _1023  and  _1024
REMARK  405  A    between atoms: _1027  and  _1029
REMARK  406  A    between atoms: _1029  and  _1030
REMARK  407  A    between atoms: _1029  and  _1032
REMARK  408  A    between atoms: _1032  and  _1033
REMARK  409  A    between atoms: _1036  and  _1038
REMARK  410  A    between atoms: _1038  and  _1039
REMARK  411  A    between atoms: _1038  and  _1041
REMARK  412  A    between atoms: _1041  and  _1042
REMARK  413  A    between atoms: _1042  and  _1043
REMARK  414  A    between atoms: _1043  and  _1044
REMARK  415  A    between atoms: _1053  and  _1055
REMARK  416  A    between atoms: _1055  and  _1056
REMARK  417  A    between atoms: _1055  and  _1058
REMARK  418  A    between atoms: _1061  and  _1063
REMARK  419  A    between atoms: _1063  and  _1064
REMARK  420  A    between atoms: _1066  and  _1068
REMARK  421  A    between atoms: _1068  and  _1069
REMARK  422  A    between atoms: _1068  and  _1071
REMARK  423  A    between atoms: _1071  and  _1072
REMARK                            x       y       z     vdW  Elec       q    Type
REMARK                         _______ _______ _______ _____ _____    ______ ____
ROOT
ATOM      1  O   HOH     1      22.501  41.268  54.260  0.00  0.00    +0.000 OA
ENDROOT
TORSDOF 0
REMARK  Name = ../refined-set-2016/1fo0/1fo0_pocket.pdb
REMARK  423 active torsions:
REMARK  status: ('A' for Active; 'I' for Inactive)
REMARK    1  A    between atoms: _1  and  _3
REMARK    2  A    between atoms: _3  and  _4
REMARK    3  A    between atoms: _3  and  _6
REMARK    4  A    between atoms: _6  and  _7
REMARK    5  A    between atoms: _10  and  _12
REMARK    6  A    between atoms: _12  and  _13
REMARK    7  A    between atoms: _12  and  _15
REMARK    8  A    between atoms: _15  and  _16
REMARK    9  A    between atoms: _16  and  _17
REMARK   10  A    between atoms: _17  and  _18
REMARK   11  A    between atoms: _27  and  _29
REMARK   12  A    between atoms: _29  and  _30
REMARK   13  A    between atoms: _29  and  _32
REMARK   14  A    between atoms: _32  and  _33
REMARK   15  A    between atoms: _38  and  _39
REMARK   16  A    between atoms: _41  and  _43
REMARK   17  A    between atoms: _43  and  _44
REMARK   18  A    between atoms: _43  and  _46
REMARK   19  A    between atoms: _46  and  _47
REMARK   20  A    between atoms: _53  and  _55
REMARK   21  A    between atoms: _55  and  _56
REMARK   22  A    between atoms: _55  and  _58
REMARK   23  A    between atoms: _61  and  _63
REMARK   24  A    between atoms: _63  and  _64
REMARK   25  A    between atoms: _63  and  _66
REMARK   26  A    between atoms: _66  and  _67
REMARK   27  A    between atoms: _70  and  _72
REMARK   28  A    between atoms: _72  and  _73
REMARK   29  A    between atoms: _72  and  _75
REMARK   30  A    between atoms: _75  and  _76
REMARK   31  A    between atoms: _81  and  _82
REMARK   32  A    between atoms: _84  and  _86
REMARK   33  A    between atoms: _86  and  _87
REMARK   34  A    between atoms: _86  and  _89
REMARK   35  A    between atoms: _89  and  _90
REMARK   36  A    between atoms: _90  and  _91
REMARK   37  A    between atoms: _93  and  _95
REMARK   38  A    between atoms: _95  and  _96
REMARK   39  A    between atoms: _95  and  _98
REMARK   40  A    between atoms: _98  and  _99
REMARK   41  A    between atoms: _99  and  _100
REMARK   42  A    between atoms: _103  and  _105
REMARK   43  A    between atoms: _105  and  _106
REMARK   44  A    between atoms: _105  and  _108
REMARK   45  A    between atoms: _111  and  _113
REMARK   46  A    between atoms: _113  and  _114
REMARK   47  A    between atoms: _116  and  _118
REMARK   48  A    between atoms: _118  and  _119
REMARK   49  A    between atoms: _118  and  _121
REMARK   50  A    between atoms: _121  and  _122
REMARK   51  A    between atoms: _128  and  _130
REMARK   52  A    between atoms: _130  and  _131
REMARK   53  A    between atoms: _130  and  _133
REMARK   54  A    between atoms: _136  and  _138
REMARK   55  A    between atoms: _138  and  _139
REMARK   56  A    between atoms: _138  and  _141
REMARK   57  A    between atoms: _141  and  _142
REMARK   58  A    between atoms: _148  and  _150
REMARK   59  A    between atoms: _150  and  _151
REMARK   60  A    between atoms: _150  and  _153
REMARK   61  A    between atoms: _153  and  _154
REMARK   62  A    between atoms: _159  and  _160
REMARK   63  A    between atoms: _162  and  _164
REMARK   64  A    between atoms: _164  and  _165
REMARK   65  A    between atoms: _164  and  _167
REMARK   66  A    between atoms: _167  and  _168
REMARK   67  A    between atoms: _168  and  _169
REMARK   68  A    between atoms: _171  and  _173
REMARK   69  A    between atoms: _173  and  _174
REMARK   70  A    between atoms: _173  and  _176
REMARK   71  A    between atoms: _176  and  _177
REMARK   72  A    between atoms: _177  and  _178
REMARK   73  A    between atoms: _181  and  _183
REMARK   74  A    between atoms: _183  and  _184
REMARK   75  A    between atoms: _183  and  _186
REMARK   76  A    between atoms: _186  and  _187
REMARK   77  A    between atoms: _192  and  _193
REMARK   78  A    between atoms: _195  and  _197
REMARK   79  A    between atoms: _197  and  _198
REMARK   80  A    between atoms: _197  and  _200
REMARK   81  A    between atoms: _200  and  _201
REMARK   82  A    between atoms: _201  and  _202
REMARK   83  A    between atoms: _202  and  _203
REMARK   84  A    between atoms: _212  and  _214
REMARK   85  A    between atoms: _214  and  _215
REMARK   86  A    between atoms: _214  and  _217
REMARK   87  A    between atoms: _217  and  _218
REMARK   88  A    between atoms: _218  and  _219
REMARK   89  A    between atoms: _222  and  _224
REMARK   90  A    between atoms: _224  and  _225
REMARK   91  A    between atoms: _224  and  _227
REMARK   92  A    between atoms: _227  and  _228
REMARK   93  A    between atoms: _228  and  _229
REMARK   94  A    between atoms: _234  and  _236
REMARK   95  A    between atoms: _236  and  _237
REMARK   96  A    between atoms: _236  and  _239
REMARK   97  A    between atoms: _239  and  _240
REMARK   98  A    between atoms: _240  and  _241
REMARK   99  A    between atoms: _241  and  _242
REMARK  100  A    between atoms: _242  and  _243
REMARK  101  A    between atoms: _247  and  _249
REMARK  102  A    between atoms: _249  and  _250
REMARK  103  A    between atoms: _253  and  _255
REMARK  104  A    between atoms: _255  and  _256
REMARK  105  A    between atoms: _255  and  _258
REMARK  106  A    between atoms: _258  and  _259
REMARK  107  A    between atoms: _259  and  _260
REMARK  108  A    between atoms: _260  and  _261
REMARK  109  A    between atoms: _261  and  _262
REMARK  110  A    between atoms: _266  and  _268
REMARK  111  A    between atoms: _268  and  _269
REMARK  112  A    between atoms: _271  and  _273
REMARK  113  A    between atoms: _273  and  _274
REMARK  114  A    between atoms: _273  and  _276
REMARK  115  A    between atoms: _276  and  _277
REMARK  116  A    between atoms: _282  and  _284
REMARK  117  A    between atoms: _284  and  _285
REMARK  118  A    between atoms: _284  and  _287
REMARK  119  A    between atoms: _287  and  _288
REMARK  120  A    between atoms: _288  and  _289
REMARK  121  A    between atoms: _292  and  _294
REMARK  122  A    between atoms: _294  and  _295
REMARK  123  A    between atoms: _294  and  _297
REMARK  124  A    between atoms: _297  and  _298
REMARK  125  A    between atoms: _298  and  _299
REMARK  126  A    between atoms: _304  and  _306
REMARK  127  A    between atoms: _306  and  _307
REMARK  128  A    between atoms: _306  and  _309
REMARK  129  A    between atoms: _309  and  _310
REMARK  130  A    between atoms: _312  and  _314
REMARK  131  A    between atoms: _314  and  _315
REMARK  132  A    between atoms: _314  and  _317
REMARK  133  A    between atoms: _317  and  _318
REMARK  134  A    between atoms: _324  and  _326
REMARK  135  A    between atoms: _326  and  _327
REMARK  136  A    between atoms: _326  and  _329
REMARK  137  A    between atoms: _329  and  _330
REMARK  138  A    between atoms: _330  and  _331
REMARK  139  A    between atoms: _331  and  _332
REMARK  140  A    between atoms: _341  and  _343
REMARK  141  A    between atoms: _343  and  _344
REMARK  142  A    between atoms: _343  and  _346
REMARK  143  A    between atoms: _349  and  _351
REMARK  144  A    between atoms: _351  and  _352
REMARK  145  A    between atoms: _351  and  _354
REMARK  146  A    between atoms: _354  and  _355
REMARK  147  A    between atoms: _358  and  _360
REMARK  148  A    between atoms: _360  and  _361
REMARK  149  A    between atoms: _360  and  _363
REMARK  150  A    between atoms: _363  and  _364
REMARK  151  A    between atoms: _367  and  _369
REMARK  152  A    between atoms: _369  and  _370
REMARK  153  A    between atoms: _369  and  _372
REMARK  154  A    between atoms: _372  and  _373
REMARK  155  A    between atoms: _373  and  _374
REMARK  156  A    between atoms: _374  and  _375
REMARK  157  A    between atoms: _384  and  _386
REMARK  158  A    between atoms: _386  and  _387
REMARK  159  A    between atoms: _386  and  _389
REMARK  160  A    between atoms: _389  and  _390
REMARK  161  A    between atoms: _393  and  _395
REMARK  162  A    between atoms: _395  and  _396
REMARK  163  A    between atoms: _395  and  _398
REMARK  164  A    between atoms: _398  and  _399
REMARK  165  A    between atoms: _402  and  _404
REMARK  166  A    between atoms: _404  and  _405
REMARK  167  A    between atoms: _404  and  _407
REMARK  168  A    between atoms: _407  and  _408
REMARK  169  A    between atoms: _411  and  _413
REMARK  170  A    between atoms: _413  and  _414
REMARK  171  A    between atoms: _413  and  _416
REMARK  172  A    between atoms: _416  and  _417
REMARK  173  A    between atoms: _422  and  _423
REMARK  174  A    between atoms: _425  and  _427
REMARK  175  A    between atoms: _427  and  _428
REMARK  176  A    between atoms: _427  and  _430
REMARK  177  A    between atoms: _430  and  _431
REMARK  178  A    between atoms: _436  and  _437
REMARK  179  A    between atoms: _439  and  _441
REMARK  180  A    between atoms: _441  and  _442
REMARK  181  A    between atoms: _441  and  _444
REMARK  182  A    between atoms: _444  and  _445
REMARK  183  A    between atoms: _448  and  _450
REMARK  184  A    between atoms: _450  and  _451
REMARK  185  A    between atoms: _450  and  _453
REMARK  186  A    between atoms: _456  and  _458
REMARK  187  A    between atoms: _458  and  _459
REMARK  188  A    between atoms: _458  and  _461
REMARK  189  A    between atoms: _461  and  _462
REMARK  190  A    between atoms: _465  and  _467
REMARK  191  A    between atoms: _467  and  _468
REMARK  192  A    between atoms: _467  and  _470
REMARK  193  A    between atoms: _470  and  _471
REMARK  194  A    between atoms: _473  and  _475
REMARK  195  A    between atoms: _475  and  _476
REMARK  196  A    between atoms: _478  and  _480
REMARK  197  A    between atoms: _480  and  _481
REMARK  198  A    between atoms: _480  and  _483
REMARK  199  A    between atoms: _483  and  _484
REMARK  200  A    between atoms: _489  and  _490
REMARK  201  A    between atoms: _492  and  _494
REMARK  202  A    between atoms: _494  and  _495
REMARK  203  A    between atoms: _494  and  _497
REMARK  204  A    between atoms: _497  and  _498
REMARK  205  A    between atoms: _498  and  _499
REMARK  206  A    between atoms: _504  and  _506
REMARK  207  A    between atoms: _506  and  _507
REMARK  208  A    between atoms: _506  and  _509
REMARK  209  A    between atoms: _509  and  _510
REMARK  210  A    between atoms: _510  and  _511
REMARK  211  A    between atoms: _516  and  _518
REMARK  212  A    between atoms: _518  and  _519
REMARK  213  A    between atoms: _518  and  _521
REMARK  214  A    between atoms: _521  and  _522
REMARK  215  A    between atoms: _527  and  _528
REMARK  216  A    between atoms: _530  and  _532
REMARK  217  A    between atoms: _532  and  _533
REMARK  218  A    between atoms: _532  and  _535
REMARK  219  A    between atoms: _535  and  _536
REMARK  220  A    between atoms: _541  and  _542
REMARK  221  A    between atoms: _544  and  _546
REMARK  222  A    between atoms: _546  and  _547
REMARK  223  A    between atoms: _546  and  _549
REMARK  224  A    between atoms: _549  and  _550
REMARK  225  A    between atoms: _555  and  _556
REMARK  226  A    between atoms: _558  and  _560
REMARK  227  A    between atoms: _560  and  _561
REMARK  228  A    between atoms: _560  and  _563
REMARK  229  A    between atoms: _563  and  _564
REMARK  230  A    between atoms: _567  and  _569
REMARK  231  A    between atoms: _569  and  _570
REMARK  232  A    between atoms: _569  and  _572
REMARK  233  A    between atoms: _572  and  _573
REMARK  234  A    between atoms: _583  and  _585
REMARK  235  A    between atoms: _585  and  _586
REMARK  236  A    between atoms: _589  and  _591
REMARK  237  A    between atoms: _591  and  _592
REMARK  238  A    between atoms: _595  and  _597
REMARK  239  A    between atoms: _597  and  _598
REMARK  240  A    between atoms: _597  and  _600
REMARK  241  A    between atoms: _600  and  _601
REMARK  242  A    between atoms: _604  and  _606
REMARK  243  A    between atoms: _606  and  _607
REMARK  244  A    between atoms: _606  and  _609
REMARK  245  A    between atoms: _609  and  _610
REMARK  246  A    between atoms: _613  and  _615
REMARK  247  A    between atoms: _615  and  _616
REMARK  248  A    between atoms: _615  and  _618
REMARK  249  A    between atoms: _618  and  _619
REMARK  250  A    between atoms: _622  and  _624
REMARK  251  A    between atoms: _624  and  _625
REMARK  252  A    between atoms: _624  and  _627
REMARK  253  A    between atoms: _627  and  _628
REMARK  254  A    between atoms: _628  and  _629
REMARK  255  A    between atoms: _629  and  _630
REMARK  256  A    between atoms: _630  and  _631
REMARK  257  A    between atoms: _635  and  _637
REMARK  258  A    between atoms: _637  and  _638
REMARK  259  A    between atoms: _637  and  _640
REMARK  260  A    between atoms: _640  and  _641
REMARK  261  A    between atoms: _646  and  _648
REMARK  262  A    between atoms: _648  and  _649
REMARK  263  A    between atoms: _648  and  _651
REMARK  264  A    between atoms: _651  and  _652
REMARK  265  A    between atoms: _652  and  _653
REMARK  266  A    between atoms: _653  and  _654
REMARK  267  A    between atoms: _654  and  _655
REMARK  268  A    between atoms: _659  and  _661
REMARK  269  A    between atoms: _661  and  _662
REMARK  270  A    between atoms: _661  and  _664
REMARK  271  A    between atoms: _664  and  _665
REMARK  272  A    between atoms: _675  and  _677
REMARK  273  A    between atoms: _677  and  _678
REMARK  274  A    between atoms: _681  and  _683
REMARK  275  A    between atoms: _683  and  _684
REMARK  276  A    between atoms: _686  and  _688
REMARK  277  A    between atoms: _688  and  _689
REMARK  278  A    between atoms: _688  and  _691
REMARK  279  A    between atoms: _691  and  _692
REMARK  280  A    between atoms: _692  and  _693
REMARK  281  A    between atoms: _696  and  _698
REMARK  282  A    between atoms: _698  and  _699
REMARK  283  A    between atoms: _702  and  _704
REMARK  284  A    between atoms: _704  and  _705
REMARK  285  A    between atoms: _704  and  _707
REMARK  286  A    between atoms: _707  and  _708
REMARK  287  A    between atoms: _708  and  _709
REMARK  288  A    between atoms: _712  and  _714
REMARK  289  A    between atoms: _714  and  _715
REMARK  290  A    between atoms: _714  and  _717
REMARK  291  A    between atoms: _717  and  _718
REMARK  292  A    between atoms: _718  and  _719
REMARK  293  A    between atoms: _719  and  _720
REMARK  294  A    between atoms: _729  and  _731
REMARK  295  A    between atoms: _731  and  _732
REMARK  296  A    between atoms: _731  and  _734
REMARK  297  A    between atoms: _734  and  _735
REMARK  298  A    between atoms: _738  and  _740
REMARK  299  A    between atoms: _740  and  _741
REMARK  300  A    between atoms: _740  and  _743
REMARK  301  A    between atoms: _743  and  _744
REMARK  302  A    between atoms: _744  and  _745
REMARK  303  A    between atoms: _745  and  _746
REMARK  304  A    between atoms: _755  and  _757
REMARK  305  A    between atoms: _757  and  _758
REMARK  306  A    between atoms: _761  and  _763
REMARK  307  A    between atoms: _763  and  _764
REMARK  308  A    between atoms: _763  and  _766
REMARK  309  A    between atoms: _766  and  _767
REMARK  310  A    between atoms: _772  and  _773
REMARK  311  A    between atoms: _775  and  _777
REMARK  312  A    between atoms: _777  and  _778
REMARK  313  A    between atoms: _777  and  _780
REMARK  314  A    between atoms: _780  and  _781
REMARK  315  A    between atoms: _784  and  _786
REMARK  316  A    between atoms: _786  and  _787
REMARK  317  A    between atoms: _786  and  _789
REMARK  318  A    between atoms: _789  and  _790
REMARK  319  A    between atoms: _793  and  _795
REMARK  320  A    between atoms: _795  and  _796
REMARK  321  A    between atoms: _795  and  _798
REMARK  322  A    between atoms: _800  and  _802
REMARK  323  A    between atoms: _802  and  _803
REMARK  324  A    between atoms: _802  and  _805
REMARK  325  A    between atoms: _808  and  _810
REMARK  326  A    between atoms: _810  and  _811
REMARK  327  A    between atoms: _810  and  _813
REMARK  328  A    between atoms: _813  and  _814
REMARK  329  A    between atoms: _814  and  _815
REMARK  330  A    between atoms: _818  and  _820
REMARK  331  A    between atoms: _820  and  _821
REMARK  332  A    between atoms: _820  and  _823
REMARK  333  A    between atoms: _823  and  _824
REMARK  334  A    between atoms: _834  and  _836
REMARK  335  A    between atoms: _836  and  _837
REMARK  336  A    between atoms: _836  and  _839
REMARK  337  A    between atoms: _839  and  _840
REMARK  338  A    between atoms: _843  and  _845
REMARK  339  A    between atoms: _845  and  _846
REMARK  340  A    between atoms: _845  and  _848
REMARK  341  A    between atoms: _848  and  _849
REMARK  342  A    between atoms: _849  and  _850
REMARK  343  A    between atoms: _850  and  _851
REMARK  344  A    between atoms: _860  and  _862
REMARK  345  A    between atoms: _862  and  _863
REMARK  346  A    between atoms: _862  and  _865
REMARK  347  A    between atoms: _865  and  _866
REMARK  348  A    between atoms: _871  and  _872
REMARK  349  A    between atoms: _874  and  _876
REMARK  350  A    between atoms: _876  and  _877
REMARK  351  A    between atoms: _876  and  _879
REMARK  352  A    between atoms: _879  and  _880
REMARK  353  A    between atoms: _880  and  _881
REMARK  354  A    between atoms: _886  and  _888
REMARK  355  A    between atoms: _888  and  _889
REMARK  356  A    between atoms: _888  and  _891
REMARK  357  A    between atoms: _891  and  _892
REMARK  358  A    between atoms: _895  and  _897
REMARK  359  A    between atoms: _897  and  _898
REMARK  360  A    between atoms: _897  and  _900
REMARK  361  A    between atoms: _900  and  _901
REMARK  362  A    between atoms: _903  and  _905
REMARK  363  A    between atoms: _905  and  _906
REMARK  364  A    between atoms: _905  and  _908
REMARK  365  A    between atoms: _908  and  _909
REMARK  366  A    between atoms: _911  and  _913
REMARK  367  A    between atoms: _913  and  _914
REMARK  368  A    between atoms: _913  and  _916
REMARK  369  A    between atoms: _916  and  _917
REMARK  370  A    between atoms: _923  and  _925
REMARK  371  A    between atoms: _925  and  _926
REMARK  372  A    between atoms: _925  and  _928
REMARK  373  A    between atoms: _928  and  _929
REMARK  374  A    between atoms: _929  and  _930
REMARK  375  A    between atoms: _930  and  _931
REMARK  376  A    between atoms: _940  and  _942
REMARK  377  A    between atoms: _942  and  _943
REMARK  378  A    between atoms: _942  and  _945
REMARK  379  A    between atoms: _945  and  _946
REMARK  380  A    between atoms: _946  and  _947
REMARK  381  A    between atoms: _947  and  _948
REMARK  382  A    between atoms: _957  and  _959
REMARK  383  A    between atoms: _959  and  _960
REMARK  384  A    between atoms: _962  and  _964
REMARK  385  A    between atoms: _964  and  _965
REMARK  386  A    between atoms: _964  and  _967
REMARK  387  A    between atoms: _967  and  _968
REMARK  388  A    between atoms: _974  and  _975
REMARK  389  A    between atoms: _980  and  _982
REMARK  390  A    between atoms: _982  and  _983
REMARK  391  A    between atoms: _982  and  _985
REMARK  392  A    between atoms: _985  and  _986
REMARK  393  A    between atoms: _996  and  _998
REMARK  394  A    between atoms: _998  and  _999
REMARK  395  A    between atoms: _998  and  _1001
REMARK  396  A    between atoms: _1001  and  _1002
REMARK  397  A    between atoms: _1002  and  _1003
REMARK  398  A    between atoms: _1003  and  _1004
REMARK  399  A    between atoms: _1013  and  _1015
REMARK  400  A    between atoms: _1015  and  _1016
REMARK  401  A    between atoms: _1015  and  _1018
REMARK  402  A    between atoms: _1018  and  _1019
REMARK  403  A    between atoms: _1021  and  _1023
REMARK  404  A    between atoms: _1023  and  _1024
REMARK  405  A    between atoms: _1027  and  _1029
REMARK  406  A    between atoms: _1029  and  _1030
REMARK  407  A    between atoms: _1029  and  _1032
REMARK  408  A    between atoms: _1032  and  _1033
REMARK  409  A    between atoms: _1036  and  _1038
REMARK  410  A    between atoms: _1038  and  _1039
REMARK  411  A    between atoms: _1038  and  _1041
REMARK  412  A    between atoms: _1041  and  _1042
REMARK  413  A    between atoms: _1042  and  _1043
REMARK  414  A    between atoms: _1043  and  _1044
REMARK  415  A    between atoms: _1053  and  _1055
REMARK  416  A    between atoms: _1055  and  _1056
REMARK  417  A    between atoms: _1055  and  _1058
REMARK  418  A    between atoms: _1061  and  _1063
REMARK  419  A    between atoms: _1063  and  _1064
REMARK  420  A    between atoms: _1066  and  _1068
REMARK  421  A    between atoms: _1068  and  _1069
REMARK  422  A    between atoms: _1068  and  _1071
REMARK  423  A    between atoms: _1071  and  _1072
REMARK                            x       y       z     vdW  Elec       q    Type
REMARK                         _______ _______ _______ _____ _____    ______ ____
ROOT
ATOM      1  O   HOH     1      27.125  26.755  51.021  0.00  0.00    +0.000 OA
ENDROOT
TORSDOF 0
REMARK  Name = ../refined-set-2016/1fo0/1fo0_pocket.pdb
REMARK  423 active torsions:
REMARK  status: ('A' for Active; 'I' for Inactive)
REMARK    1  A    between atoms: _1  and  _3
REMARK    2  A    between atoms: _3  and  _4
REMARK    3  A    between atoms: _3  and  _6
REMARK    4  A    between atoms: _6  and  _7
REMARK    5  A    between atoms: _10  and  _12
REMARK    6  A    between atoms: _12  and  _13
REMARK    7  A    between atoms: _12  and  _15
REMARK    8  A    between atoms: _15  and  _16
REMARK    9  A    between atoms: _16  and  _17
REMARK   10  A    between atoms: _17  and  _18
REMARK   11  A    between atoms: _27  and  _29
REMARK   12  A    between atoms: _29  and  _30
REMARK   13  A    between atoms: _29  and  _32
REMARK   14  A    between atoms: _32  and  _33
REMARK   15  A    between atoms: _38  and  _39
REMARK   16  A    between atoms: _41  and  _43
REMARK   17  A    between atoms: _43  and  _44
REMARK   18  A    between atoms: _43  and  _46
REMARK   19  A    between atoms: _46  and  _47
REMARK   20  A    between atoms: _53  and  _55
REMARK   21  A    between atoms: _55  and  _56
REMARK   22  A    between atoms: _55  and  _58
REMARK   23  A    between atoms: _61  and  _63
REMARK   24  A    between atoms: _63  and  _64
REMARK   25  A    between atoms: _63  and  _66
REMARK   26  A    between atoms: _66  and  _67
REMARK   27  A    between atoms: _70  and  _72
REMARK   28  A    between atoms: _72  and  _73
REMARK   29  A    between atoms: _72  and  _75
REMARK   30  A    between atoms: _75  and  _76
REMARK   31  A    between atoms: _81  and  _82
REMARK   32  A    between atoms: _84  and  _86
REMARK   33  A    between atoms: _86  and  _87
REMARK   34  A    between atoms: _86  and  _89
REMARK   35  A    between atoms: _89  and  _90
REMARK   36  A    between atoms: _90  and  _91
REMARK   37  A    between atoms: _93  and  _95
REMARK   38  A    between atoms: _95  and  _96
REMARK   39  A    between atoms: _95  and  _98
REMARK   40  A    between atoms: _98  and  _99
REMARK   41  A    between atoms: _99  and  _100
REMARK   42  A    between atoms: _103  and  _105
REMARK   43  A    between atoms: _105  and  _106
REMARK   44  A    between atoms: _105  and  _108
REMARK   45  A    between atoms: _111  and  _113
REMARK   46  A    between atoms: _113  and  _114
REMARK   47  A    between atoms: _116  and  _118
REMARK   48  A    between atoms: _118  and  _119
REMARK   49  A    between atoms: _118  and  _121
REMARK   50  A    between atoms: _121  and  _122
REMARK   51  A    between atoms: _128  and  _130
REMARK   52  A    between atoms: _130  and  _131
REMARK   53  A    between atoms: _130  and  _133
REMARK   54  A    between atoms: _136  and  _138
REMARK   55  A    between atoms: _138  and  _139
REMARK   56  A    between atoms: _138  and  _141
REMARK   57  A    between atoms: _141  and  _142
REMARK   58  A    between atoms: _148  and  _150
REMARK   59  A    between atoms: _150  and  _151
REMARK   60  A    between atoms: _150  and  _153
REMARK   61  A    between atoms: _153  and  _154
REMARK   62  A    between atoms: _159  and  _160
REMARK   63  A    between atoms: _162  and  _164
REMARK   64  A    between atoms: _164  and  _165
REMARK   65  A    between atoms: _164  and  _167
REMARK   66  A    between atoms: _167  and  _168
REMARK   67  A    between atoms: _168  and  _169
REMARK   68  A    between atoms: _171  and  _173
REMARK   69  A    between atoms: _173  and  _174
REMARK   70  A    between atoms: _173  and  _176
REMARK   71  A    between atoms: _176  and  _177
REMARK   72  A    between atoms: _177  and  _178
REMARK   73  A    between atoms: _181  and  _183
REMARK   74  A    between atoms: _183  and  _184
REMARK   75  A    between atoms: _183  and  _186
REMARK   76  A    between atoms: _186  and  _187
REMARK   77  A    between atoms: _192  and  _193
REMARK   78  A    between atoms: _195  and  _197
REMARK   79  A    between atoms: _197  and  _198
REMARK   80  A    between atoms: _197  and  _200
REMARK   81  A    between atoms: _200  and  _201
REMARK   82  A    between atoms: _201  and  _202
REMARK   83  A    between atoms: _202  and  _203
REMARK   84  A    between atoms: _212  and  _214
REMARK   85  A    between atoms: _214  and  _215
REMARK   86  A    between atoms: _214  and  _217
REMARK   87  A    between atoms: _217  and  _218
REMARK   88  A    between atoms: _218  and  _219
REMARK   89  A    between atoms: _222  and  _224
REMARK   90  A    between atoms: _224  and  _225
REMARK   91  A    between atoms: _224  and  _227
REMARK   92  A    between atoms: _227  and  _228
REMARK   93  A    between atoms: _228  and  _229
REMARK   94  A    between atoms: _234  and  _236
REMARK   95  A    between atoms: _236  and  _237
REMARK   96  A    between atoms: _236  and  _239
REMARK   97  A    between atoms: _239  and  _240
REMARK   98  A    between atoms: _240  and  _241
REMARK   99  A    between atoms: _241  and  _242
REMARK  100  A    between atoms: _242  and  _243
REMARK  101  A    between atoms: _247  and  _249
REMARK  102  A    between atoms: _249  and  _250
REMARK  103  A    between atoms: _253  and  _255
REMARK  104  A    between atoms: _255  and  _256
REMARK  105  A    between atoms: _255  and  _258
REMARK  106  A    between atoms: _258  and  _259
REMARK  107  A    between atoms: _259  and  _260
REMARK  108  A    between atoms: _260  and  _261
REMARK  109  A    between atoms: _261  and  _262
REMARK  110  A    between atoms: _266  and  _268
REMARK  111  A    between atoms: _268  and  _269
REMARK  112  A    between atoms: _271  and  _273
REMARK  113  A    between atoms: _273  and  _274
REMARK  114  A    between atoms: _273  and  _276
REMARK  115  A    between atoms: _276  and  _277
REMARK  116  A    between atoms: _282  and  _284
REMARK  117  A    between atoms: _284  and  _285
REMARK  118  A    between atoms: _284  and  _287
REMARK  119  A    between atoms: _287  and  _288
REMARK  120  A    between atoms: _288  and  _289
REMARK  121  A    between atoms: _292  and  _294
REMARK  122  A    between atoms: _294  and  _295
REMARK  123  A    between atoms: _294  and  _297
REMARK  124  A    between atoms: _297  and  _298
REMARK  125  A    between atoms: _298  and  _299
REMARK  126  A    between atoms: _304  and  _306
REMARK  127  A    between atoms: _306  and  _307
REMARK  128  A    between atoms: _306  and  _309
REMARK  129  A    between atoms: _309  and  _310
REMARK  130  A    between atoms: _312  and  _314
REMARK  131  A    between atoms: _314  and  _315
REMARK  132  A    between atoms: _314  and  _317
REMARK  133  A    between atoms: _317  and  _318
REMARK  134  A    between atoms: _324  and  _326
REMARK  135  A    between atoms: _326  and  _327
REMARK  136  A    between atoms: _326  and  _329
REMARK  137  A    between atoms: _329  and  _330
REMARK  138  A    between atoms: _330  and  _331
REMARK  139  A    between atoms: _331  and  _332
REMARK  140  A    between atoms: _341  and  _343
REMARK  141  A    between atoms: _343  and  _344
REMARK  142  A    between atoms: _343  and  _346
REMARK  143  A    between atoms: _349  and  _351
REMARK  144  A    between atoms: _351  and  _352
REMARK  145  A    between atoms: _351  and  _354
REMARK  146  A    between atoms: _354  and  _355
REMARK  147  A    between atoms: _358  and  _360
REMARK  148  A    between atoms: _360  and  _361
REMARK  149  A    between atoms: _360  and  _363
REMARK  150  A    between atoms: _363  and  _364
REMARK  151  A    between atoms: _367  and  _369
REMARK  152  A    between atoms: _369  and  _370
REMARK  153  A    between atoms: _369  and  _372
REMARK  154  A    between atoms: _372  and  _373
REMARK  155  A    between atoms: _373  and  _374
REMARK  156  A    between atoms: _374  and  _375
REMARK  157  A    between atoms: _384  and  _386
REMARK  158  A    between atoms: _386  and  _387
REMARK  159  A    between atoms: _386  and  _389
REMARK  160  A    between atoms: _389  and  _390
REMARK  161  A    between atoms: _393  and  _395
REMARK  162  A    between atoms: _395  and  _396
REMARK  163  A    between atoms: _395  and  _398
REMARK  164  A    between atoms: _398  and  _399
REMARK  165  A    between atoms: _402  and  _404
REMARK  166  A    between atoms: _404  and  _405
REMARK  167  A    between atoms: _404  and  _407
REMARK  168  A    between atoms: _407  and  _408
REMARK  169  A    between atoms: _411  and  _413
REMARK  170  A    between atoms: _413  and  _414
REMARK  171  A    between atoms: _413  and  _416
REMARK  172  A    between atoms: _416  and  _417
REMARK  173  A    between atoms: _422  and  _423
REMARK  174  A    between atoms: _425  and  _427
REMARK  175  A    between atoms: _427  and  _428
REMARK  176  A    between atoms: _427  and  _430
REMARK  177  A    between atoms: _430  and  _431
REMARK  178  A    between atoms: _436  and  _437
REMARK  179  A    between atoms: _439  and  _441
REMARK  180  A    between atoms: _441  and  _442
REMARK  181  A    between atoms: _441  and  _444
REMARK  182  A    between atoms: _444  and  _445
REMARK  183  A    between atoms: _448  and  _450
REMARK  184  A    between atoms: _450  and  _451
REMARK  185  A    between atoms: _450  and  _453
REMARK  186  A    between atoms: _456  and  _458
REMARK  187  A    between atoms: _458  and  _459
REMARK  188  A    between atoms: _458  and  _461
REMARK  189  A    between atoms: _461  and  _462
REMARK  190  A    between atoms: _465  and  _467
REMARK  191  A    between atoms: _467  and  _468
REMARK  192  A    between atoms: _467  and  _470
REMARK  193  A    between atoms: _470  and  _471
REMARK  194  A    between atoms: _473  and  _475
REMARK  195  A    between atoms: _475  and  _476
REMARK  196  A    between atoms: _478  and  _480
REMARK  197  A    between atoms: _480  and  _481
REMARK  198  A    between atoms: _480  and  _483
REMARK  199  A    between atoms: _483  and  _484
REMARK  200  A    between atoms: _489  and  _490
REMARK  201  A    between atoms: _492  and  _494
REMARK  202  A    between atoms: _494  and  _495
REMARK  203  A    between atoms: _494  and  _497
REMARK  204  A    between atoms: _497  and  _498
REMARK  205  A    between atoms: _498  and  _499
REMARK  206  A    between atoms: _504  and  _506
REMARK  207  A    between atoms: _506  and  _507
REMARK  208  A    between atoms: _506  and  _509
REMARK  209  A    between atoms: _509  and  _510
REMARK  210  A    between atoms: _510  and  _511
REMARK  211  A    between atoms: _516  and  _518
REMARK  212  A    between atoms: _518  and  _519
REMARK  213  A    between atoms: _518  and  _521
REMARK  214  A    between atoms: _521  and  _522
REMARK  215  A    between atoms: _527  and  _528
REMARK  216  A    between atoms: _530  and  _532
REMARK  217  A    between atoms: _532  and  _533
REMARK  218  A    between atoms: _532  and  _535
REMARK  219  A    between atoms: _535  and  _536
REMARK  220  A    between atoms: _541  and  _542
REMARK  221  A    between atoms: _544  and  _546
REMARK  222  A    between atoms: _546  and  _547
REMARK  223  A    between atoms: _546  and  _549
REMARK  224  A    between atoms: _549  and  _550
REMARK  225  A    between atoms: _555  and  _556
REMARK  226  A    between atoms: _558  and  _560
REMARK  227  A    between atoms: _560  and  _561
REMARK  228  A    between atoms: _560  and  _563
REMARK  229  A    between atoms: _563  and  _564
REMARK  230  A    between atoms: _567  and  _569
REMARK  231  A    between atoms: _569  and  _570
REMARK  232  A    between atoms: _569  and  _572
REMARK  233  A    between atoms: _572  and  _573
REMARK  234  A    between atoms: _583  and  _585
REMARK  235  A    between atoms: _585  and  _586
REMARK  236  A    between atoms: _589  and  _591
REMARK  237  A    between atoms: _591  and  _592
REMARK  238  A    between atoms: _595  and  _597
REMARK  239  A    between atoms: _597  and  _598
REMARK  240  A    between atoms: _597  and  _600
REMARK  241  A    between atoms: _600  and  _601
REMARK  242  A    between atoms: _604  and  _606
REMARK  243  A    between atoms: _606  and  _607
REMARK  244  A    between atoms: _606  and  _609
REMARK  245  A    between atoms: _609  and  _610
REMARK  246  A    between atoms: _613  and  _615
REMARK  247  A    between atoms: _615  and  _616
REMARK  248  A    between atoms: _615  and  _618
REMARK  249  A    between atoms: _618  and  _619
REMARK  250  A    between atoms: _622  and  _624
REMARK  251  A    between atoms: _624  and  _625
REMARK  252  A    between atoms: _624  and  _627
REMARK  253  A    between atoms: _627  and  _628
REMARK  254  A    between atoms: _628  and  _629
REMARK  255  A    between atoms: _629  and  _630
REMARK  256  A    between atoms: _630  and  _631
REMARK  257  A    between atoms: _635  and  _637
REMARK  258  A    between atoms: _637  and  _638
REMARK  259  A    between atoms: _637  and  _640
REMARK  260  A    between atoms: _640  and  _641
REMARK  261  A    between atoms: _646  and  _648
REMARK  262  A    between atoms: _648  and  _649
REMARK  263  A    between atoms: _648  and  _651
REMARK  264  A    between atoms: _651  and  _652
REMARK  265  A    between atoms: _652  and  _653
REMARK  266  A    between atoms: _653  and  _654
REMARK  267  A    between atoms: _654  and  _655
REMARK  268  A    between atoms: _659  and  _661
REMARK  269  A    between atoms: _661  and  _662
REMARK  270  A    between atoms: _661  and  _664
REMARK  271  A    between atoms: _664  and  _665
REMARK  272  A    between atoms: _675  and  _677
REMARK  273  A    between atoms: _677  and  _678
REMARK  274  A    between atoms: _681  and  _683
REMARK  275  A    between atoms: _683  and  _684
REMARK  276  A    between atoms: _686  and  _688
REMARK  277  A    between atoms: _688  and  _689
REMARK  278  A    between atoms: _688  and  _691
REMARK  279  A    between atoms: _691  and  _692
REMARK  280  A    between atoms: _692  and  _693
REMARK  281  A    between atoms: _696  and  _698
REMARK  282  A    between atoms: _698  and  _699
REMARK  283  A    between atoms: _702  and  _704
REMARK  284  A    between atoms: _704  and  _705
REMARK  285  A    between atoms: _704  and  _707
REMARK  286  A    between atoms: _707  and  _708
REMARK  287  A    between atoms: _708  and  _709
REMARK  288  A    between atoms: _712  and  _714
REMARK  289  A    between atoms: _714  and  _715
REMARK  290  A    between atoms: _714  and  _717
REMARK  291  A    between atoms: _717  and  _718
REMARK  292  A    between atoms: _718  and  _719
REMARK  293  A    between atoms: _719  and  _720
REMARK  294  A    between atoms: _729  and  _731
REMARK  295  A    between atoms: _731  and  _732
REMARK  296  A    between atoms: _731  and  _734
REMARK  297  A    between atoms: _734  and  _735
REMARK  298  A    between atoms: _738  and  _740
REMARK  299  A    between atoms: _740  and  _741
REMARK  300  A    between atoms: _740  and  _743
REMARK  301  A    between atoms: _743  and  _744
REMARK  302  A    between atoms: _744  and  _745
REMARK  303  A    between atoms: _745  and  _746
REMARK  304  A    between atoms: _755  and  _757
REMARK  305  A    between atoms: _757  and  _758
REMARK  306  A    between atoms: _761  and  _763
REMARK  307  A    between atoms: _763  and  _764
REMARK  308  A    between atoms: _763  and  _766
REMARK  309  A    between atoms: _766  and  _767
REMARK  310  A    between atoms: _772  and  _773
REMARK  311  A    between atoms: _775  and  _777
REMARK  312  A    between atoms: _777  and  _778
REMARK  313  A    between atoms: _777  and  _780
REMARK  314  A    between atoms: _780  and  _781
REMARK  315  A    between atoms: _784  and  _786
REMARK  316  A    between atoms: _786  and  _787
REMARK  317  A    between atoms: _786  and  _789
REMARK  318  A    between atoms: _789  and  _790
REMARK  319  A    between atoms: _793  and  _795
REMARK  320  A    between atoms: _795  and  _796
REMARK  321  A    between atoms: _795  and  _798
REMARK  322  A    between atoms: _800  and  _802
REMARK  323  A    between atoms: _802  and  _803
REMARK  324  A    between atoms: _802  and  _805
REMARK  325  A    between atoms: _808  and  _810
REMARK  326  A    between atoms: _810  and  _811
REMARK  327  A    between atoms: _810  and  _813
REMARK  328  A    between atoms: _813  and  _814
REMARK  329  A    between atoms: _814  and  _815
REMARK  330  A    between atoms: _818  and  _820
REMARK  331  A    between atoms: _820  and  _821
REMARK  332  A    between atoms: _820  and  _823
REMARK  333  A    between atoms: _823  and  _824
REMARK  334  A    between atoms: _834  and  _836
REMARK  335  A    between atoms: _836  and  _837
REMARK  336  A    between atoms: _836  and  _839
REMARK  337  A    between atoms: _839  and  _840
REMARK  338  A    between atoms: _843  and  _845
REMARK  339  A    between atoms: _845  and  _846
REMARK  340  A    between atoms: _845  and  _848
REMARK  341  A    between atoms: _848  and  _849
REMARK  342  A    between atoms: _849  and  _850
REMARK  343  A    between atoms: _850  and  _851
REMARK  344  A    between atoms: _860  and  _862
REMARK  345  A    between atoms: _862  and  _863
REMARK  346  A    between atoms: _862  and  _865
REMARK  347  A    between atoms: _865  and  _866
REMARK  348  A    between atoms: _871  and  _872
REMARK  349  A    between atoms: _874  and  _876
REMARK  350  A    between atoms: _876  and  _877
REMARK  351  A    between atoms: _876  and  _879
REMARK  352  A    between atoms: _879  and  _880
REMARK  353  A    between atoms: _880  and  _881
REMARK  354  A    between atoms: _886  and  _888
REMARK  355  A    between atoms: _888  and  _889
REMARK  356  A    between atoms: _888  and  _891
REMARK  357  A    between atoms: _891  and  _892
REMARK  358  A    between atoms: _895  and  _897
REMARK  359  A    between atoms: _897  and  _898
REMARK  360  A    between atoms: _897  and  _900
REMARK  361  A    between atoms: _900  and  _901
REMARK  362  A    between atoms: _903  and  _905
REMARK  363  A    between atoms: _905  and  _906
REMARK  364  A    between atoms: _905  and  _908
REMARK  365  A    between atoms: _908  and  _909
REMARK  366  A    between atoms: _911  and  _913
REMARK  367  A    between atoms: _913  and  _914
REMARK  368  A    between atoms: _913  and  _916
REMARK  369  A    between atoms: _916  and  _917
REMARK  370  A    between atoms: _923  and  _925
REMARK  371  A    between atoms: _925  and  _926
REMARK  372  A    between atoms: _925  and  _928
REMARK  373  A    between atoms: _928  and  _929
REMARK  374  A    between atoms: _929  and  _930
REMARK  375  A    between atoms: _930  and  _931
REMARK  376  A    between atoms: _940  and  _942
REMARK  377  A    between atoms: _942  and  _943
REMARK  378  A    between atoms: _942  and  _945
REMARK  379  A    between atoms: _945  and  _946
REMARK  380  A    between atoms: _946  and  _947
REMARK  381  A    between atoms: _947  and  _948
REMARK  382  A    between atoms: _957  and  _959
REMARK  383  A    between atoms: _959  and  _960
REMARK  384  A    between atoms: _962  and  _964
REMARK  385  A    between atoms: _964  and  _965
REMARK  386  A    between atoms: _964  and  _967
REMARK  387  A    between atoms: _967  and  _968
REMARK  388  A    between atoms: _974  and  _975
REMARK  389  A    between atoms: _980  and  _982
REMARK  390  A    between atoms: _982  and  _983
REMARK  391  A    between atoms: _982  and  _985
REMARK  392  A    between atoms: _985  and  _986
REMARK  393  A    between atoms: _996  and  _998
REMARK  394  A    between atoms: _998  and  _999
REMARK  395  A    between atoms: _998  and  _1001
REMARK  396  A    between atoms: _1001  and  _1002
REMARK  397  A    between atoms: _1002  and  _1003
REMARK  398  A    between atoms: _1003  and  _1004
REMARK  399  A    between atoms: _1013  and  _1015
REMARK  400  A    between atoms: _1015  and  _1016
REMARK  401  A    between atoms: _1015  and  _1018
REMARK  402  A    between atoms: _1018  and  _1019
REMARK  403  A    between atoms: _1021  and  _1023
REMARK  404  A    between atoms: _1023  and  _1024
REMARK  405  A    between atoms: _1027  and  _1029
REMARK  406  A    between atoms: _1029  and  _1030
REMARK  407  A    between atoms: _1029  and  _1032
REMARK  408  A    between atoms: _1032  and  _1033
REMARK  409  A    between atoms: _1036  and  _1038
REMARK  410  A    between atoms: _1038  and  _1039
REMARK  411  A    between atoms: _1038  and  _1041
REMARK  412  A    between atoms: _1041  and  _1042
REMARK  413  A    between atoms: _1042  and  _1043
REMARK  414  A    between atoms: _1043  and  _1044
REMARK  415  A    between atoms: _1053  and  _1055
REMARK  416  A    between atoms: _1055  and  _1056
REMARK  417  A    between atoms: _1055  and  _1058
REMARK  418  A    between atoms: _1061  and  _1063
REMARK  419  A    between atoms: _1063  and  _1064
REMARK  420  A    between atoms: _1066  and  _1068
REMARK  421  A    between atoms: _1068  and  _1069
REMARK  422  A    between atoms: _1068  and  _1071
REMARK  423  A    between atoms: _1071  and  _1072
REMARK                            x       y       z     vdW  Elec       q    Type
REMARK                         _______ _______ _______ _____ _____    ______ ____
ROOT
ATOM      1  O   HOH     1      20.185  37.121  55.991  0.00  0.00    +0.000 OA
ENDROOT
TORSDOF 0
REMARK  Name = ../refined-set-2016/1fo0/1fo0_pocket.pdb
REMARK  423 active torsions:
REMARK  status: ('A' for Active; 'I' for Inactive)
REMARK    1  A    between atoms: _1  and  _3
REMARK    2  A    between atoms: _3  and  _4
REMARK    3  A    between atoms: _3  and  _6
REMARK    4  A    between atoms: _6  and  _7
REMARK    5  A    between atoms: _10  and  _12
REMARK    6  A    between atoms: _12  and  _13
REMARK    7  A    between atoms: _12  and  _15
REMARK    8  A    between atoms: _15  and  _16
REMARK    9  A    between atoms: _16  and  _17
REMARK   10  A    between atoms: _17  and  _18
REMARK   11  A    between atoms: _27  and  _29
REMARK   12  A    between atoms: _29  and  _30
REMARK   13  A    between atoms: _29  and  _32
REMARK   14  A    between atoms: _32  and  _33
REMARK   15  A    between atoms: _38  and  _39
REMARK   16  A    between atoms: _41  and  _43
REMARK   17  A    between atoms: _43  and  _44
REMARK   18  A    between atoms: _43  and  _46
REMARK   19  A    between atoms: _46  and  _47
REMARK   20  A    between atoms: _53  and  _55
REMARK   21  A    between atoms: _55  and  _56
REMARK   22  A    between atoms: _55  and  _58
REMARK   23  A    between atoms: _61  and  _63
REMARK   24  A    between atoms: _63  and  _64
REMARK   25  A    between atoms: _63  and  _66
REMARK   26  A    between atoms: _66  and  _67
REMARK   27  A    between atoms: _70  and  _72
REMARK   28  A    between atoms: _72  and  _73
REMARK   29  A    between atoms: _72  and  _75
REMARK   30  A    between atoms: _75  and  _76
REMARK   31  A    between atoms: _81  and  _82
REMARK   32  A    between atoms: _84  and  _86
REMARK   33  A    between atoms: _86  and  _87
REMARK   34  A    between atoms: _86  and  _89
REMARK   35  A    between atoms: _89  and  _90
REMARK   36  A    between atoms: _90  and  _91
REMARK   37  A    between atoms: _93  and  _95
REMARK   38  A    between atoms: _95  and  _96
REMARK   39  A    between atoms: _95  and  _98
REMARK   40  A    between atoms: _98  and  _99
REMARK   41  A    between atoms: _99  and  _100
REMARK   42  A    between atoms: _103  and  _105
REMARK   43  A    between atoms: _105  and  _106
REMARK   44  A    between atoms: _105  and  _108
REMARK   45  A    between atoms: _111  and  _113
REMARK   46  A    between atoms: _113  and  _114
REMARK   47  A    between atoms: _116  and  _118
REMARK   48  A    between atoms: _118  and  _119
REMARK   49  A    between atoms: _118  and  _121
REMARK   50  A    between atoms: _121  and  _122
REMARK   51  A    between atoms: _128  and  _130
REMARK   52  A    between atoms: _130  and  _131
REMARK   53  A    between atoms: _130  and  _133
REMARK   54  A    between atoms: _136  and  _138
REMARK   55  A    between atoms: _138  and  _139
REMARK   56  A    between atoms: _138  and  _141
REMARK   57  A    between atoms: _141  and  _142
REMARK   58  A    between atoms: _148  and  _150
REMARK   59  A    between atoms: _150  and  _151
REMARK   60  A    between atoms: _150  and  _153
REMARK   61  A    between atoms: _153  and  _154
REMARK   62  A    between atoms: _159  and  _160
REMARK   63  A    between atoms: _162  and  _164
REMARK   64  A    between atoms: _164  and  _165
REMARK   65  A    between atoms: _164  and  _167
REMARK   66  A    between atoms: _167  and  _168
REMARK   67  A    between atoms: _168  and  _169
REMARK   68  A    between atoms: _171  and  _173
REMARK   69  A    between atoms: _173  and  _174
REMARK   70  A    between atoms: _173  and  _176
REMARK   71  A    between atoms: _176  and  _177
REMARK   72  A    between atoms: _177  and  _178
REMARK   73  A    between atoms: _181  and  _183
REMARK   74  A    between atoms: _183  and  _184
REMARK   75  A    between atoms: _183  and  _186
REMARK   76  A    between atoms: _186  and  _187
REMARK   77  A    between atoms: _192  and  _193
REMARK   78  A    between atoms: _195  and  _197
REMARK   79  A    between atoms: _197  and  _198
REMARK   80  A    between atoms: _197  and  _200
REMARK   81  A    between atoms: _200  and  _201
REMARK   82  A    between atoms: _201  and  _202
REMARK   83  A    between atoms: _202  and  _203
REMARK   84  A    between atoms: _212  and  _214
REMARK   85  A    between atoms: _214  and  _215
REMARK   86  A    between atoms: _214  and  _217
REMARK   87  A    between atoms: _217  and  _218
REMARK   88  A    between atoms: _218  and  _219
REMARK   89  A    between atoms: _222  and  _224
REMARK   90  A    between atoms: _224  and  _225
REMARK   91  A    between atoms: _224  and  _227
REMARK   92  A    between atoms: _227  and  _228
REMARK   93  A    between atoms: _228  and  _229
REMARK   94  A    between atoms: _234  and  _236
REMARK   95  A    between atoms: _236  and  _237
REMARK   96  A    between atoms: _236  and  _239
REMARK   97  A    between atoms: _239  and  _240
REMARK   98  A    between atoms: _240  and  _241
REMARK   99  A    between atoms: _241  and  _242
REMARK  100  A    between atoms: _242  and  _243
REMARK  101  A    between atoms: _247  and  _249
REMARK  102  A    between atoms: _249  and  _250
REMARK  103  A    between atoms: _253  and  _255
REMARK  104  A    between atoms: _255  and  _256
REMARK  105  A    between atoms: _255  and  _258
REMARK  106  A    between atoms: _258  and  _259
REMARK  107  A    between atoms: _259  and  _260
REMARK  108  A    between atoms: _260  and  _261
REMARK  109  A    between atoms: _261  and  _262
REMARK  110  A    between atoms: _266  and  _268
REMARK  111  A    between atoms: _268  and  _269
REMARK  112  A    between atoms: _271  and  _273
REMARK  113  A    between atoms: _273  and  _274
REMARK  114  A    between atoms: _273  and  _276
REMARK  115  A    between atoms: _276  and  _277
REMARK  116  A    between atoms: _282  and  _284
REMARK  117  A    between atoms: _284  and  _285
REMARK  118  A    between atoms: _284  and  _287
REMARK  119  A    between atoms: _287  and  _288
REMARK  120  A    between atoms: _288  and  _289
REMARK  121  A    between atoms: _292  and  _294
REMARK  122  A    between atoms: _294  and  _295
REMARK  123  A    between atoms: _294  and  _297
REMARK  124  A    between atoms: _297  and  _298
REMARK  125  A    between atoms: _298  and  _299
REMARK  126  A    between atoms: _304  and  _306
REMARK  127  A    between atoms: _306  and  _307
REMARK  128  A    between atoms: _306  and  _309
REMARK  129  A    between atoms: _309  and  _310
REMARK  130  A    between atoms: _312  and  _314
REMARK  131  A    between atoms: _314  and  _315
REMARK  132  A    between atoms: _314  and  _317
REMARK  133  A    between atoms: _317  and  _318
REMARK  134  A    between atoms: _324  and  _326
REMARK  135  A    between atoms: _326  and  _327
REMARK  136  A    between atoms: _326  and  _329
REMARK  137  A    between atoms: _329  and  _330
REMARK  138  A    between atoms: _330  and  _331
REMARK  139  A    between atoms: _331  and  _332
REMARK  140  A    between atoms: _341  and  _343
REMARK  141  A    between atoms: _343  and  _344
REMARK  142  A    between atoms: _343  and  _346
REMARK  143  A    between atoms: _349  and  _351
REMARK  144  A    between atoms: _351  and  _352
REMARK  145  A    between atoms: _351  and  _354
REMARK  146  A    between atoms: _354  and  _355
REMARK  147  A    between atoms: _358  and  _360
REMARK  148  A    between atoms: _360  and  _361
REMARK  149  A    between atoms: _360  and  _363
REMARK  150  A    between atoms: _363  and  _364
REMARK  151  A    between atoms: _367  and  _369
REMARK  152  A    between atoms: _369  and  _370
REMARK  153  A    between atoms: _369  and  _372
REMARK  154  A    between atoms: _372  and  _373
REMARK  155  A    between atoms: _373  and  _374
REMARK  156  A    between atoms: _374  and  _375
REMARK  157  A    between atoms: _384  and  _386
REMARK  158  A    between atoms: _386  and  _387
REMARK  159  A    between atoms: _386  and  _389
REMARK  160  A    between atoms: _389  and  _390
REMARK  161  A    between atoms: _393  and  _395
REMARK  162  A    between atoms: _395  and  _396
REMARK  163  A    between atoms: _395  and  _398
REMARK  164  A    between atoms: _398  and  _399
REMARK  165  A    between atoms: _402  and  _404
REMARK  166  A    between atoms: _404  and  _405
REMARK  167  A    between atoms: _404  and  _407
REMARK  168  A    between atoms: _407  and  _408
REMARK  169  A    between atoms: _411  and  _413
REMARK  170  A    between atoms: _413  and  _414
REMARK  171  A    between atoms: _413  and  _416
REMARK  172  A    between atoms: _416  and  _417
REMARK  173  A    between atoms: _422  and  _423
REMARK  174  A    between atoms: _425  and  _427
REMARK  175  A    between atoms: _427  and  _428
REMARK  176  A    between atoms: _427  and  _430
REMARK  177  A    between atoms: _430  and  _431
REMARK  178  A    between atoms: _436  and  _437
REMARK  179  A    between atoms: _439  and  _441
REMARK  180  A    between atoms: _441  and  _442
REMARK  181  A    between atoms: _441  and  _444
REMARK  182  A    between atoms: _444  and  _445
REMARK  183  A    between atoms: _448  and  _450
REMARK  184  A    between atoms: _450  and  _451
REMARK  185  A    between atoms: _450  and  _453
REMARK  186  A    between atoms: _456  and  _458
REMARK  187  A    between atoms: _458  and  _459
REMARK  188  A    between atoms: _458  and  _461
REMARK  189  A    between atoms: _461  and  _462
REMARK  190  A    between atoms: _465  and  _467
REMARK  191  A    between atoms: _467  and  _468
REMARK  192  A    between atoms: _467  and  _470
REMARK  193  A    between atoms: _470  and  _471
REMARK  194  A    between atoms: _473  and  _475
REMARK  195  A    between atoms: _475  and  _476
REMARK  196  A    between atoms: _478  and  _480
REMARK  197  A    between atoms: _480  and  _481
REMARK  198  A    between atoms: _480  and  _483
REMARK  199  A    between atoms: _483  and  _484
REMARK  200  A    between atoms: _489  and  _490
REMARK  201  A    between atoms: _492  and  _494
REMARK  202  A    between atoms: _494  and  _495
REMARK  203  A    between atoms: _494  and  _497
REMARK  204  A    between atoms: _497  and  _498
REMARK  205  A    between atoms: _498  and  _499
REMARK  206  A    between atoms: _504  and  _506
REMARK  207  A    between atoms: _506  and  _507
REMARK  208  A    between atoms: _506  and  _509
REMARK  209  A    between atoms: _509  and  _510
REMARK  210  A    between atoms: _510  and  _511
REMARK  211  A    between atoms: _516  and  _518
REMARK  212  A    between atoms: _518  and  _519
REMARK  213  A    between atoms: _518  and  _521
REMARK  214  A    between atoms: _521  and  _522
REMARK  215  A    between atoms: _527  and  _528
REMARK  216  A    between atoms: _530  and  _532
REMARK  217  A    between atoms: _532  and  _533
REMARK  218  A    between atoms: _532  and  _535
REMARK  219  A    between atoms: _535  and  _536
REMARK  220  A    between atoms: _541  and  _542
REMARK  221  A    between atoms: _544  and  _546
REMARK  222  A    between atoms: _546  and  _547
REMARK  223  A    between atoms: _546  and  _549
REMARK  224  A    between atoms: _549  and  _550
REMARK  225  A    between atoms: _555  and  _556
REMARK  226  A    between atoms: _558  and  _560
REMARK  227  A    between atoms: _560  and  _561
REMARK  228  A    between atoms: _560  and  _563
REMARK  229  A    between atoms: _563  and  _564
REMARK  230  A    between atoms: _567  and  _569
REMARK  231  A    between atoms: _569  and  _570
REMARK  232  A    between atoms: _569  and  _572
REMARK  233  A    between atoms: _572  and  _573
REMARK  234  A    between atoms: _583  and  _585
REMARK  235  A    between atoms: _585  and  _586
REMARK  236  A    between atoms: _589  and  _591
REMARK  237  A    between atoms: _591  and  _592
REMARK  238  A    between atoms: _595  and  _597
REMARK  239  A    between atoms: _597  and  _598
REMARK  240  A    between atoms: _597  and  _600
REMARK  241  A    between atoms: _600  and  _601
REMARK  242  A    between atoms: _604  and  _606
REMARK  243  A    between atoms: _606  and  _607
REMARK  244  A    between atoms: _606  and  _609
REMARK  245  A    between atoms: _609  and  _610
REMARK  246  A    between atoms: _613  and  _615
REMARK  247  A    between atoms: _615  and  _616
REMARK  248  A    between atoms: _615  and  _618
REMARK  249  A    between atoms: _618  and  _619
REMARK  250  A    between atoms: _622  and  _624
REMARK  251  A    between atoms: _624  and  _625
REMARK  252  A    between atoms: _624  and  _627
REMARK  253  A    between atoms: _627  and  _628
REMARK  254  A    between atoms: _628  and  _629
REMARK  255  A    between atoms: _629  and  _630
REMARK  256  A    between atoms: _630  and  _631
REMARK  257  A    between atoms: _635  and  _637
REMARK  258  A    between atoms: _637  and  _638
REMARK  259  A    between atoms: _637  and  _640
REMARK  260  A    between atoms: _640  and  _641
REMARK  261  A    between atoms: _646  and  _648
REMARK  262  A    between atoms: _648  and  _649
REMARK  263  A    between atoms: _648  and  _651
REMARK  264  A    between atoms: _651  and  _652
REMARK  265  A    between atoms: _652  and  _653
REMARK  266  A    between atoms: _653  and  _654
REMARK  267  A    between atoms: _654  and  _655
REMARK  268  A    between atoms: _659  and  _661
REMARK  269  A    between atoms: _661  and  _662
REMARK  270  A    between atoms: _661  and  _664
REMARK  271  A    between atoms: _664  and  _665
REMARK  272  A    between atoms: _675  and  _677
REMARK  273  A    between atoms: _677  and  _678
REMARK  274  A    between atoms: _681  and  _683
REMARK  275  A    between atoms: _683  and  _684
REMARK  276  A    between atoms: _686  and  _688
REMARK  277  A    between atoms: _688  and  _689
REMARK  278  A    between atoms: _688  and  _691
REMARK  279  A    between atoms: _691  and  _692
REMARK  280  A    between atoms: _692  and  _693
REMARK  281  A    between atoms: _696  and  _698
REMARK  282  A    between atoms: _698  and  _699
REMARK  283  A    between atoms: _702  and  _704
REMARK  284  A    between atoms: _704  and  _705
REMARK  285  A    between atoms: _704  and  _707
REMARK  286  A    between atoms: _707  and  _708
REMARK  287  A    between atoms: _708  and  _709
REMARK  288  A    between atoms: _712  and  _714
REMARK  289  A    between atoms: _714  and  _715
REMARK  290  A    between atoms: _714  and  _717
REMARK  291  A    between atoms: _717  and  _718
REMARK  292  A    between atoms: _718  and  _719
REMARK  293  A    between atoms: _719  and  _720
REMARK  294  A    between atoms: _729  and  _731
REMARK  295  A    between atoms: _731  and  _732
REMARK  296  A    between atoms: _731  and  _734
REMARK  297  A    between atoms: _734  and  _735
REMARK  298  A    between atoms: _738  and  _740
REMARK  299  A    between atoms: _740  and  _741
REMARK  300  A    between atoms: _740  and  _743
REMARK  301  A    between atoms: _743  and  _744
REMARK  302  A    between atoms: _744  and  _745
REMARK  303  A    between atoms: _745  and  _746
REMARK  304  A    between atoms: _755  and  _757
REMARK  305  A    between atoms: _757  and  _758
REMARK  306  A    between atoms: _761  and  _763
REMARK  307  A    between atoms: _763  and  _764
REMARK  308  A    between atoms: _763  and  _766
REMARK  309  A    between atoms: _766  and  _767
REMARK  310  A    between atoms: _772  and  _773
REMARK  311  A    between atoms: _775  and  _777
REMARK  312  A    between atoms: _777  and  _778
REMARK  313  A    between atoms: _777  and  _780
REMARK  314  A    between atoms: _780  and  _781
REMARK  315  A    between atoms: _784  and  _786
REMARK  316  A    between atoms: _786  and  _787
REMARK  317  A    between atoms: _786  and  _789
REMARK  318  A    between atoms: _789  and  _790
REMARK  319  A    between atoms: _793  and  _795
REMARK  320  A    between atoms: _795  and  _796
REMARK  321  A    between atoms: _795  and  _798
REMARK  322  A    between atoms: _800  and  _802
REMARK  323  A    between atoms: _802  and  _803
REMARK  324  A    between atoms: _802  and  _805
REMARK  325  A    between atoms: _808  and  _810
REMARK  326  A    between atoms: _810  and  _811
REMARK  327  A    between atoms: _810  and  _813
REMARK  328  A    between atoms: _813  and  _814
REMARK  329  A    between atoms: _814  and  _815
REMARK  330  A    between atoms: _818  and  _820
REMARK  331  A    between atoms: _820  and  _821
REMARK  332  A    between atoms: _820  and  _823
REMARK  333  A    between atoms: _823  and  _824
REMARK  334  A    between atoms: _834  and  _836
REMARK  335  A    between atoms: _836  and  _837
REMARK  336  A    between atoms: _836  and  _839
REMARK  337  A    between atoms: _839  and  _840
REMARK  338  A    between atoms: _843  and  _845
REMARK  339  A    between atoms: _845  and  _846
REMARK  340  A    between atoms: _845  and  _848
REMARK  341  A    between atoms: _848  and  _849
REMARK  342  A    between atoms: _849  and  _850
REMARK  343  A    between atoms: _850  and  _851
REMARK  344  A    between atoms: _860  and  _862
REMARK  345  A    between atoms: _862  and  _863
REMARK  346  A    between atoms: _862  and  _865
REMARK  347  A    between atoms: _865  and  _866
REMARK  348  A    between atoms: _871  and  _872
REMARK  349  A    between atoms: _874  and  _876
REMARK  350  A    between atoms: _876  and  _877
REMARK  351  A    between atoms: _876  and  _879
REMARK  352  A    between atoms: _879  and  _880
REMARK  353  A    between atoms: _880  and  _881
REMARK  354  A    between atoms: _886  and  _888
REMARK  355  A    between atoms: _888  and  _889
REMARK  356  A    between atoms: _888  and  _891
REMARK  357  A    between atoms: _891  and  _892
REMARK  358  A    between atoms: _895  and  _897
REMARK  359  A    between atoms: _897  and  _898
REMARK  360  A    between atoms: _897  and  _900
REMARK  361  A    between atoms: _900  and  _901
REMARK  362  A    between atoms: _903  and  _905
REMARK  363  A    between atoms: _905  and  _906
REMARK  364  A    between atoms: _905  and  _908
REMARK  365  A    between atoms: _908  and  _909
REMARK  366  A    between atoms: _911  and  _913
REMARK  367  A    between atoms: _913  and  _914
REMARK  368  A    between atoms: _913  and  _916
REMARK  369  A    between atoms: _916  and  _917
REMARK  370  A    between atoms: _923  and  _925
REMARK  371  A    between atoms: _925  and  _926
REMARK  372  A    between atoms: _925  and  _928
REMARK  373  A    between atoms: _928  and  _929
REMARK  374  A    between atoms: _929  and  _930
REMARK  375  A    between atoms: _930  and  _931
REMARK  376  A    between atoms: _940  and  _942
REMARK  377  A    between atoms: _942  and  _943
REMARK  378  A    between atoms: _942  and  _945
REMARK  379  A    between atoms: _945  and  _946
REMARK  380  A    between atoms: _946  and  _947
REMARK  381  A    between atoms: _947  and  _948
REMARK  382  A    between atoms: _957  and  _959
REMARK  383  A    between atoms: _959  and  _960
REMARK  384  A    between atoms: _962  and  _964
REMARK  385  A    between atoms: _964  and  _965
REMARK  386  A    between atoms: _964  and  _967
REMARK  387  A    between atoms: _967  and  _968
REMARK  388  A    between atoms: _974  and  _975
REMARK  389  A    between atoms: _980  and  _982
REMARK  390  A    between atoms: _982  and  _983
REMARK  391  A    between atoms: _982  and  _985
REMARK  392  A    between atoms: _985  and  _986
REMARK  393  A    between atoms: _996  and  _998
REMARK  394  A    between atoms: _998  and  _999
REMARK  395  A    between atoms: _998  and  _1001
REMARK  396  A    between atoms: _1001  and  _1002
REMARK  397  A    between atoms: _1002  and  _1003
REMARK  398  A    between atoms: _1003  and  _1004
REMARK  399  A    between atoms: _1013  and  _1015
REMARK  400  A    between atoms: _1015  and  _1016
REMARK  401  A    between atoms: _1015  and  _1018
REMARK  402  A    between atoms: _1018  and  _1019
REMARK  403  A    between atoms: _1021  and  _1023
REMARK  404  A    between atoms: _1023  and  _1024
REMARK  405  A    between atoms: _1027  and  _1029
REMARK  406  A    between atoms: _1029  and  _1030
REMARK  407  A    between atoms: _1029  and  _1032
REMARK  408  A    between atoms: _1032  and  _1033
REMARK  409  A    between atoms: _1036  and  _1038
REMARK  410  A    between atoms: _1038  and  _1039
REMARK  411  A    between atoms: _1038  and  _1041
REMARK  412  A    between atoms: _1041  and  _1042
REMARK  413  A    between atoms: _1042  and  _1043
REMARK  414  A    between atoms: _1043  and  _1044
REMARK  415  A    between atoms: _1053  and  _1055
REMARK  416  A    between atoms: _1055  and  _1056
REMARK  417  A    between atoms: _1055  and  _1058
REMARK  418  A    between atoms: _1061  and  _1063
REMARK  419  A    between atoms: _1063  and  _1064
REMARK  420  A    between atoms: _1066  and  _1068
REMARK  421  A    between atoms: _1068  and  _1069
REMARK  422  A    between atoms: _1068  and  _1071
REMARK  423  A    between atoms: _1071  and  _1072
REMARK                            x       y       z     vdW  Elec       q    Type
REMARK                         _______ _______ _______ _____ _____    ______ ____
ROOT
ATOM      1  O   HOH     1      28.910  33.880  51.986  0.00  0.00    +0.000 OA
ENDROOT
TORSDOF 0
REMARK  Name = ../refined-set-2016/1fo0/1fo0_pocket.pdb
REMARK  423 active torsions:
REMARK  status: ('A' for Active; 'I' for Inactive)
REMARK    1  A    between atoms: _1  and  _3
REMARK    2  A    between atoms: _3  and  _4
REMARK    3  A    between atoms: _3  and  _6
REMARK    4  A    between atoms: _6  and  _7
REMARK    5  A    between atoms: _10  and  _12
REMARK    6  A    between atoms: _12  and  _13
REMARK    7  A    between atoms: _12  and  _15
REMARK    8  A    between atoms: _15  and  _16
REMARK    9  A    between atoms: _16  and  _17
REMARK   10  A    between atoms: _17  and  _18
REMARK   11  A    between atoms: _27  and  _29
REMARK   12  A    between atoms: _29  and  _30
REMARK   13  A    between atoms: _29  and  _32
REMARK   14  A    between atoms: _32  and  _33
REMARK   15  A    between atoms: _38  and  _39
REMARK   16  A    between atoms: _41  and  _43
REMARK   17  A    between atoms: _43  and  _44
REMARK   18  A    between atoms: _43  and  _46
REMARK   19  A    between atoms: _46  and  _47
REMARK   20  A    between atoms: _53  and  _55
REMARK   21  A    between atoms: _55  and  _56
REMARK   22  A    between atoms: _55  and  _58
REMARK   23  A    between atoms: _61  and  _63
REMARK   24  A    between atoms: _63  and  _64
REMARK   25  A    between atoms: _63  and  _66
REMARK   26  A    between atoms: _66  and  _67
REMARK   27  A    between atoms: _70  and  _72
REMARK   28  A    between atoms: _72  and  _73
REMARK   29  A    between atoms: _72  and  _75
REMARK   30  A    between atoms: _75  and  _76
REMARK   31  A    between atoms: _81  and  _82
REMARK   32  A    between atoms: _84  and  _86
REMARK   33  A    between atoms: _86  and  _87
REMARK   34  A    between atoms: _86  and  _89
REMARK   35  A    between atoms: _89  and  _90
REMARK   36  A    between atoms: _90  and  _91
REMARK   37  A    between atoms: _93  and  _95
REMARK   38  A    between atoms: _95  and  _96
REMARK   39  A    between atoms: _95  and  _98
REMARK   40  A    between atoms: _98  and  _99
REMARK   41  A    between atoms: _99  and  _100
REMARK   42  A    between atoms: _103  and  _105
REMARK   43  A    between atoms: _105  and  _106
REMARK   44  A    between atoms: _105  and  _108
REMARK   45  A    between atoms: _111  and  _113
REMARK   46  A    between atoms: _113  and  _114
REMARK   47  A    between atoms: _116  and  _118
REMARK   48  A    between atoms: _118  and  _119
REMARK   49  A    between atoms: _118  and  _121
REMARK   50  A    between atoms: _121  and  _122
REMARK   51  A    between atoms: _128  and  _130
REMARK   52  A    between atoms: _130  and  _131
REMARK   53  A    between atoms: _130  and  _133
REMARK   54  A    between atoms: _136  and  _138
REMARK   55  A    between atoms: _138  and  _139
REMARK   56  A    between atoms: _138  and  _141
REMARK   57  A    between atoms: _141  and  _142
REMARK   58  A    between atoms: _148  and  _150
REMARK   59  A    between atoms: _150  and  _151
REMARK   60  A    between atoms: _150  and  _153
REMARK   61  A    between atoms: _153  and  _154
REMARK   62  A    between atoms: _159  and  _160
REMARK   63  A    between atoms: _162  and  _164
REMARK   64  A    between atoms: _164  and  _165
REMARK   65  A    between atoms: _164  and  _167
REMARK   66  A    between atoms: _167  and  _168
REMARK   67  A    between atoms: _168  and  _169
REMARK   68  A    between atoms: _171  and  _173
REMARK   69  A    between atoms: _173  and  _174
REMARK   70  A    between atoms: _173  and  _176
REMARK   71  A    between atoms: _176  and  _177
REMARK   72  A    between atoms: _177  and  _178
REMARK   73  A    between atoms: _181  and  _183
REMARK   74  A    between atoms: _183  and  _184
REMARK   75  A    between atoms: _183  and  _186
REMARK   76  A    between atoms: _186  and  _187
REMARK   77  A    between atoms: _192  and  _193
REMARK   78  A    between atoms: _195  and  _197
REMARK   79  A    between atoms: _197  and  _198
REMARK   80  A    between atoms: _197  and  _200
REMARK   81  A    between atoms: _200  and  _201
REMARK   82  A    between atoms: _201  and  _202
REMARK   83  A    between atoms: _202  and  _203
REMARK   84  A    between atoms: _212  and  _214
REMARK   85  A    between atoms: _214  and  _215
REMARK   86  A    between atoms: _214  and  _217
REMARK   87  A    between atoms: _217  and  _218
REMARK   88  A    between atoms: _218  and  _219
REMARK   89  A    between atoms: _222  and  _224
REMARK   90  A    between atoms: _224  and  _225
REMARK   91  A    between atoms: _224  and  _227
REMARK   92  A    between atoms: _227  and  _228
REMARK   93  A    between atoms: _228  and  _229
REMARK   94  A    between atoms: _234  and  _236
REMARK   95  A    between atoms: _236  and  _237
REMARK   96  A    between atoms: _236  and  _239
REMARK   97  A    between atoms: _239  and  _240
REMARK   98  A    between atoms: _240  and  _241
REMARK   99  A    between atoms: _241  and  _242
REMARK  100  A    between atoms: _242  and  _243
REMARK  101  A    between atoms: _247  and  _249
REMARK  102  A    between atoms: _249  and  _250
REMARK  103  A    between atoms: _253  and  _255
REMARK  104  A    between atoms: _255  and  _256
REMARK  105  A    between atoms: _255  and  _258
REMARK  106  A    between atoms: _258  and  _259
REMARK  107  A    between atoms: _259  and  _260
REMARK  108  A    between atoms: _260  and  _261
REMARK  109  A    between atoms: _261  and  _262
REMARK  110  A    between atoms: _266  and  _268
REMARK  111  A    between atoms: _268  and  _269
REMARK  112  A    between atoms: _271  and  _273
REMARK  113  A    between atoms: _273  and  _274
REMARK  114  A    between atoms: _273  and  _276
REMARK  115  A    between atoms: _276  and  _277
REMARK  116  A    between atoms: _282  and  _284
REMARK  117  A    between atoms: _284  and  _285
REMARK  118  A    between atoms: _284  and  _287
REMARK  119  A    between atoms: _287  and  _288
REMARK  120  A    between atoms: _288  and  _289
REMARK  121  A    between atoms: _292  and  _294
REMARK  122  A    between atoms: _294  and  _295
REMARK  123  A    between atoms: _294  and  _297
REMARK  124  A    between atoms: _297  and  _298
REMARK  125  A    between atoms: _298  and  _299
REMARK  126  A    between atoms: _304  and  _306
REMARK  127  A    between atoms: _306  and  _307
REMARK  128  A    between atoms: _306  and  _309
REMARK  129  A    between atoms: _309  and  _310
REMARK  130  A    between atoms: _312  and  _314
REMARK  131  A    between atoms: _314  and  _315
REMARK  132  A    between atoms: _314  and  _317
REMARK  133  A    between atoms: _317  and  _318
REMARK  134  A    between atoms: _324  and  _326
REMARK  135  A    between atoms: _326  and  _327
REMARK  136  A    between atoms: _326  and  _329
REMARK  137  A    between atoms: _329  and  _330
REMARK  138  A    between atoms: _330  and  _331
REMARK  139  A    between atoms: _331  and  _332
REMARK  140  A    between atoms: _341  and  _343
REMARK  141  A    between atoms: _343  and  _344
REMARK  142  A    between atoms: _343  and  _346
REMARK  143  A    between atoms: _349  and  _351
REMARK  144  A    between atoms: _351  and  _352
REMARK  145  A    between atoms: _351  and  _354
REMARK  146  A    between atoms: _354  and  _355
REMARK  147  A    between atoms: _358  and  _360
REMARK  148  A    between atoms: _360  and  _361
REMARK  149  A    between atoms: _360  and  _363
REMARK  150  A    between atoms: _363  and  _364
REMARK  151  A    between atoms: _367  and  _369
REMARK  152  A    between atoms: _369  and  _370
REMARK  153  A    between atoms: _369  and  _372
REMARK  154  A    between atoms: _372  and  _373
REMARK  155  A    between atoms: _373  and  _374
REMARK  156  A    between atoms: _374  and  _375
REMARK  157  A    between atoms: _384  and  _386
REMARK  158  A    between atoms: _386  and  _387
REMARK  159  A    between atoms: _386  and  _389
REMARK  160  A    between atoms: _389  and  _390
REMARK  161  A    between atoms: _393  and  _395
REMARK  162  A    between atoms: _395  and  _396
REMARK  163  A    between atoms: _395  and  _398
REMARK  164  A    between atoms: _398  and  _399
REMARK  165  A    between atoms: _402  and  _404
REMARK  166  A    between atoms: _404  and  _405
REMARK  167  A    between atoms: _404  and  _407
REMARK  168  A    between atoms: _407  and  _408
REMARK  169  A    between atoms: _411  and  _413
REMARK  170  A    between atoms: _413  and  _414
REMARK  171  A    between atoms: _413  and  _416
REMARK  172  A    between atoms: _416  and  _417
REMARK  173  A    between atoms: _422  and  _423
REMARK  174  A    between atoms: _425  and  _427
REMARK  175  A    between atoms: _427  and  _428
REMARK  176  A    between atoms: _427  and  _430
REMARK  177  A    between atoms: _430  and  _431
REMARK  178  A    between atoms: _436  and  _437
REMARK  179  A    between atoms: _439  and  _441
REMARK  180  A    between atoms: _441  and  _442
REMARK  181  A    between atoms: _441  and  _444
REMARK  182  A    between atoms: _444  and  _445
REMARK  183  A    between atoms: _448  and  _450
REMARK  184  A    between atoms: _450  and  _451
REMARK  185  A    between atoms: _450  and  _453
REMARK  186  A    between atoms: _456  and  _458
REMARK  187  A    between atoms: _458  and  _459
REMARK  188  A    between atoms: _458  and  _461
REMARK  189  A    between atoms: _461  and  _462
REMARK  190  A    between atoms: _465  and  _467
REMARK  191  A    between atoms: _467  and  _468
REMARK  192  A    between atoms: _467  and  _470
REMARK  193  A    between atoms: _470  and  _471
REMARK  194  A    between atoms: _473  and  _475
REMARK  195  A    between atoms: _475  and  _476
REMARK  196  A    between atoms: _478  and  _480
REMARK  197  A    between atoms: _480  and  _481
REMARK  198  A    between atoms: _480  and  _483
REMARK  199  A    between atoms: _483  and  _484
REMARK  200  A    between atoms: _489  and  _490
REMARK  201  A    between atoms: _492  and  _494
REMARK  202  A    between atoms: _494  and  _495
REMARK  203  A    between atoms: _494  and  _497
REMARK  204  A    between atoms: _497  and  _498
REMARK  205  A    between atoms: _498  and  _499
REMARK  206  A    between atoms: _504  and  _506
REMARK  207  A    between atoms: _506  and  _507
REMARK  208  A    between atoms: _506  and  _509
REMARK  209  A    between atoms: _509  and  _510
REMARK  210  A    between atoms: _510  and  _511
REMARK  211  A    between atoms: _516  and  _518
REMARK  212  A    between atoms: _518  and  _519
REMARK  213  A    between atoms: _518  and  _521
REMARK  214  A    between atoms: _521  and  _522
REMARK  215  A    between atoms: _527  and  _528
REMARK  216  A    between atoms: _530  and  _532
REMARK  217  A    between atoms: _532  and  _533
REMARK  218  A    between atoms: _532  and  _535
REMARK  219  A    between atoms: _535  and  _536
REMARK  220  A    between atoms: _541  and  _542
REMARK  221  A    between atoms: _544  and  _546
REMARK  222  A    between atoms: _546  and  _547
REMARK  223  A    between atoms: _546  and  _549
REMARK  224  A    between atoms: _549  and  _550
REMARK  225  A    between atoms: _555  and  _556
REMARK  226  A    between atoms: _558  and  _560
REMARK  227  A    between atoms: _560  and  _561
REMARK  228  A    between atoms: _560  and  _563
REMARK  229  A    between atoms: _563  and  _564
REMARK  230  A    between atoms: _567  and  _569
REMARK  231  A    between atoms: _569  and  _570
REMARK  232  A    between atoms: _569  and  _572
REMARK  233  A    between atoms: _572  and  _573
REMARK  234  A    between atoms: _583  and  _585
REMARK  235  A    between atoms: _585  and  _586
REMARK  236  A    between atoms: _589  and  _591
REMARK  237  A    between atoms: _591  and  _592
REMARK  238  A    between atoms: _595  and  _597
REMARK  239  A    between atoms: _597  and  _598
REMARK  240  A    between atoms: _597  and  _600
REMARK  241  A    between atoms: _600  and  _601
REMARK  242  A    between atoms: _604  and  _606
REMARK  243  A    between atoms: _606  and  _607
REMARK  244  A    between atoms: _606  and  _609
REMARK  245  A    between atoms: _609  and  _610
REMARK  246  A    between atoms: _613  and  _615
REMARK  247  A    between atoms: _615  and  _616
REMARK  248  A    between atoms: _615  and  _618
REMARK  249  A    between atoms: _618  and  _619
REMARK  250  A    between atoms: _622  and  _624
REMARK  251  A    between atoms: _624  and  _625
REMARK  252  A    between atoms: _624  and  _627
REMARK  253  A    between atoms: _627  and  _628
REMARK  254  A    between atoms: _628  and  _629
REMARK  255  A    between atoms: _629  and  _630
REMARK  256  A    between atoms: _630  and  _631
REMARK  257  A    between atoms: _635  and  _637
REMARK  258  A    between atoms: _637  and  _638
REMARK  259  A    between atoms: _637  and  _640
REMARK  260  A    between atoms: _640  and  _641
REMARK  261  A    between atoms: _646  and  _648
REMARK  262  A    between atoms: _648  and  _649
REMARK  263  A    between atoms: _648  and  _651
REMARK  264  A    between atoms: _651  and  _652
REMARK  265  A    between atoms: _652  and  _653
REMARK  266  A    between atoms: _653  and  _654
REMARK  267  A    between atoms: _654  and  _655
REMARK  268  A    between atoms: _659  and  _661
REMARK  269  A    between atoms: _661  and  _662
REMARK  270  A    between atoms: _661  and  _664
REMARK  271  A    between atoms: _664  and  _665
REMARK  272  A    between atoms: _675  and  _677
REMARK  273  A    between atoms: _677  and  _678
REMARK  274  A    between atoms: _681  and  _683
REMARK  275  A    between atoms: _683  and  _684
REMARK  276  A    between atoms: _686  and  _688
REMARK  277  A    between atoms: _688  and  _689
REMARK  278  A    between atoms: _688  and  _691
REMARK  279  A    between atoms: _691  and  _692
REMARK  280  A    between atoms: _692  and  _693
REMARK  281  A    between atoms: _696  and  _698
REMARK  282  A    between atoms: _698  and  _699
REMARK  283  A    between atoms: _702  and  _704
REMARK  284  A    between atoms: _704  and  _705
REMARK  285  A    between atoms: _704  and  _707
REMARK  286  A    between atoms: _707  and  _708
REMARK  287  A    between atoms: _708  and  _709
REMARK  288  A    between atoms: _712  and  _714
REMARK  289  A    between atoms: _714  and  _715
REMARK  290  A    between atoms: _714  and  _717
REMARK  291  A    between atoms: _717  and  _718
REMARK  292  A    between atoms: _718  and  _719
REMARK  293  A    between atoms: _719  and  _720
REMARK  294  A    between atoms: _729  and  _731
REMARK  295  A    between atoms: _731  and  _732
REMARK  296  A    between atoms: _731  and  _734
REMARK  297  A    between atoms: _734  and  _735
REMARK  298  A    between atoms: _738  and  _740
REMARK  299  A    between atoms: _740  and  _741
REMARK  300  A    between atoms: _740  and  _743
REMARK  301  A    between atoms: _743  and  _744
REMARK  302  A    between atoms: _744  and  _745
REMARK  303  A    between atoms: _745  and  _746
REMARK  304  A    between atoms: _755  and  _757
REMARK  305  A    between atoms: _757  and  _758
REMARK  306  A    between atoms: _761  and  _763
REMARK  307  A    between atoms: _763  and  _764
REMARK  308  A    between atoms: _763  and  _766
REMARK  309  A    between atoms: _766  and  _767
REMARK  310  A    between atoms: _772  and  _773
REMARK  311  A    between atoms: _775  and  _777
REMARK  312  A    between atoms: _777  and  _778
REMARK  313  A    between atoms: _777  and  _780
REMARK  314  A    between atoms: _780  and  _781
REMARK  315  A    between atoms: _784  and  _786
REMARK  316  A    between atoms: _786  and  _787
REMARK  317  A    between atoms: _786  and  _789
REMARK  318  A    between atoms: _789  and  _790
REMARK  319  A    between atoms: _793  and  _795
REMARK  320  A    between atoms: _795  and  _796
REMARK  321  A    between atoms: _795  and  _798
REMARK  322  A    between atoms: _800  and  _802
REMARK  323  A    between atoms: _802  and  _803
REMARK  324  A    between atoms: _802  and  _805
REMARK  325  A    between atoms: _808  and  _810
REMARK  326  A    between atoms: _810  and  _811
REMARK  327  A    between atoms: _810  and  _813
REMARK  328  A    between atoms: _813  and  _814
REMARK  329  A    between atoms: _814  and  _815
REMARK  330  A    between atoms: _818  and  _820
REMARK  331  A    between atoms: _820  and  _821
REMARK  332  A    between atoms: _820  and  _823
REMARK  333  A    between atoms: _823  and  _824
REMARK  334  A    between atoms: _834  and  _836
REMARK  335  A    between atoms: _836  and  _837
REMARK  336  A    between atoms: _836  and  _839
REMARK  337  A    between atoms: _839  and  _840
REMARK  338  A    between atoms: _843  and  _845
REMARK  339  A    between atoms: _845  and  _846
REMARK  340  A    between atoms: _845  and  _848
REMARK  341  A    between atoms: _848  and  _849
REMARK  342  A    between atoms: _849  and  _850
REMARK  343  A    between atoms: _850  and  _851
REMARK  344  A    between atoms: _860  and  _862
REMARK  345  A    between atoms: _862  and  _863
REMARK  346  A    between atoms: _862  and  _865
REMARK  347  A    between atoms: _865  and  _866
REMARK  348  A    between atoms: _871  and  _872
REMARK  349  A    between atoms: _874  and  _876
REMARK  350  A    between atoms: _876  and  _877
REMARK  351  A    between atoms: _876  and  _879
REMARK  352  A    between atoms: _879  and  _880
REMARK  353  A    between atoms: _880  and  _881
REMARK  354  A    between atoms: _886  and  _888
REMARK  355  A    between atoms: _888  and  _889
REMARK  356  A    between atoms: _888  and  _891
REMARK  357  A    between atoms: _891  and  _892
REMARK  358  A    between atoms: _895  and  _897
REMARK  359  A    between atoms: _897  and  _898
REMARK  360  A    between atoms: _897  and  _900
REMARK  361  A    between atoms: _900  and  _901
REMARK  362  A    between atoms: _903  and  _905
REMARK  363  A    between atoms: _905  and  _906
REMARK  364  A    between atoms: _905  and  _908
REMARK  365  A    between atoms: _908  and  _909
REMARK  366  A    between atoms: _911  and  _913
REMARK  367  A    between atoms: _913  and  _914
REMARK  368  A    between atoms: _913  and  _916
REMARK  369  A    between atoms: _916  and  _917
REMARK  370  A    between atoms: _923  and  _925
REMARK  371  A    between atoms: _925  and  _926
REMARK  372  A    between atoms: _925  and  _928
REMARK  373  A    between atoms: _928  and  _929
REMARK  374  A    between atoms: _929  and  _930
REMARK  375  A    between atoms: _930  and  _931
REMARK  376  A    between atoms: _940  and  _942
REMARK  377  A    between atoms: _942  and  _943
REMARK  378  A    between atoms: _942  and  _945
REMARK  379  A    between atoms: _945  and  _946
REMARK  380  A    between atoms: _946  and  _947
REMARK  381  A    between atoms: _947  and  _948
REMARK  382  A    between atoms: _957  and  _959
REMARK  383  A    between atoms: _959  and  _960
REMARK  384  A    between atoms: _962  and  _964
REMARK  385  A    between atoms: _964  and  _965
REMARK  386  A    between atoms: _964  and  _967
REMARK  387  A    between atoms: _967  and  _968
REMARK  388  A    between atoms: _974  and  _975
REMARK  389  A    between atoms: _980  and  _982
REMARK  390  A    between atoms: _982  and  _983
REMARK  391  A    between atoms: _982  and  _985
REMARK  392  A    between atoms: _985  and  _986
REMARK  393  A    between atoms: _996  and  _998
REMARK  394  A    between atoms: _998  and  _999
REMARK  395  A    between atoms: _998  and  _1001
REMARK  396  A    between atoms: _1001  and  _1002
REMARK  397  A    between atoms: _1002  and  _1003
REMARK  398  A    between atoms: _1003  and  _1004
REMARK  399  A    between atoms: _1013  and  _1015
REMARK  400  A    between atoms: _1015  and  _1016
REMARK  401  A    between atoms: _1015  and  _1018
REMARK  402  A    between atoms: _1018  and  _1019
REMARK  403  A    between atoms: _1021  and  _1023
REMARK  404  A    between atoms: _1023  and  _1024
REMARK  405  A    between atoms: _1027  and  _1029
REMARK  406  A    between atoms: _1029  and  _1030
REMARK  407  A    between atoms: _1029  and  _1032
REMARK  408  A    between atoms: _1032  and  _1033
REMARK  409  A    between atoms: _1036  and  _1038
REMARK  410  A    between atoms: _1038  and  _1039
REMARK  411  A    between atoms: _1038  and  _1041
REMARK  412  A    between atoms: _1041  and  _1042
REMARK  413  A    between atoms: _1042  and  _1043
REMARK  414  A    between atoms: _1043  and  _1044
REMARK  415  A    between atoms: _1053  and  _1055
REMARK  416  A    between atoms: _1055  and  _1056
REMARK  417  A    between atoms: _1055  and  _1058
REMARK  418  A    between atoms: _1061  and  _1063
REMARK  419  A    between atoms: _1063  and  _1064
REMARK  420  A    between atoms: _1066  and  _1068
REMARK  421  A    between atoms: _1068  and  _1069
REMARK  422  A    between atoms: _1068  and  _1071
REMARK  423  A    between atoms: _1071  and  _1072
REMARK                            x       y       z     vdW  Elec       q    Type
REMARK                         _______ _______ _______ _____ _____    ______ ____
ROOT
ATOM      1  O   HOH     1      13.992  34.326  51.115  0.00  0.00    +0.000 OA
ENDROOT
TORSDOF 0
REMARK  Name = ../refined-set-2016/1fo0/1fo0_pocket.pdb
REMARK  423 active torsions:
REMARK  status: ('A' for Active; 'I' for Inactive)
REMARK    1  A    between atoms: _1  and  _3
REMARK    2  A    between atoms: _3  and  _4
REMARK    3  A    between atoms: _3  and  _6
REMARK    4  A    between atoms: _6  and  _7
REMARK    5  A    between atoms: _10  and  _12
REMARK    6  A    between atoms: _12  and  _13
REMARK    7  A    between atoms: _12  and  _15
REMARK    8  A    between atoms: _15  and  _16
REMARK    9  A    between atoms: _16  and  _17
REMARK   10  A    between atoms: _17  and  _18
REMARK   11  A    between atoms: _27  and  _29
REMARK   12  A    between atoms: _29  and  _30
REMARK   13  A    between atoms: _29  and  _32
REMARK   14  A    between atoms: _32  and  _33
REMARK   15  A    between atoms: _38  and  _39
REMARK   16  A    between atoms: _41  and  _43
REMARK   17  A    between atoms: _43  and  _44
REMARK   18  A    between atoms: _43  and  _46
REMARK   19  A    between atoms: _46  and  _47
REMARK   20  A    between atoms: _53  and  _55
REMARK   21  A    between atoms: _55  and  _56
REMARK   22  A    between atoms: _55  and  _58
REMARK   23  A    between atoms: _61  and  _63
REMARK   24  A    between atoms: _63  and  _64
REMARK   25  A    between atoms: _63  and  _66
REMARK   26  A    between atoms: _66  and  _67
REMARK   27  A    between atoms: _70  and  _72
REMARK   28  A    between atoms: _72  and  _73
REMARK   29  A    between atoms: _72  and  _75
REMARK   30  A    between atoms: _75  and  _76
REMARK   31  A    between atoms: _81  and  _82
REMARK   32  A    between atoms: _84  and  _86
REMARK   33  A    between atoms: _86  and  _87
REMARK   34  A    between atoms: _86  and  _89
REMARK   35  A    between atoms: _89  and  _90
REMARK   36  A    between atoms: _90  and  _91
REMARK   37  A    between atoms: _93  and  _95
REMARK   38  A    between atoms: _95  and  _96
REMARK   39  A    between atoms: _95  and  _98
REMARK   40  A    between atoms: _98  and  _99
REMARK   41  A    between atoms: _99  and  _100
REMARK   42  A    between atoms: _103  and  _105
REMARK   43  A    between atoms: _105  and  _106
REMARK   44  A    between atoms: _105  and  _108
REMARK   45  A    between atoms: _111  and  _113
REMARK   46  A    between atoms: _113  and  _114
REMARK   47  A    between atoms: _116  and  _118
REMARK   48  A    between atoms: _118  and  _119
REMARK   49  A    between atoms: _118  and  _121
REMARK   50  A    between atoms: _121  and  _122
REMARK   51  A    between atoms: _128  and  _130
REMARK   52  A    between atoms: _130  and  _131
REMARK   53  A    between atoms: _130  and  _133
REMARK   54  A    between atoms: _136  and  _138
REMARK   55  A    between atoms: _138  and  _139
REMARK   56  A    between atoms: _138  and  _141
REMARK   57  A    between atoms: _141  and  _142
REMARK   58  A    between atoms: _148  and  _150
REMARK   59  A    between atoms: _150  and  _151
REMARK   60  A    between atoms: _150  and  _153
REMARK   61  A    between atoms: _153  and  _154
REMARK   62  A    between atoms: _159  and  _160
REMARK   63  A    between atoms: _162  and  _164
REMARK   64  A    between atoms: _164  and  _165
REMARK   65  A    between atoms: _164  and  _167
REMARK   66  A    between atoms: _167  and  _168
REMARK   67  A    between atoms: _168  and  _169
REMARK   68  A    between atoms: _171  and  _173
REMARK   69  A    between atoms: _173  and  _174
REMARK   70  A    between atoms: _173  and  _176
REMARK   71  A    between atoms: _176  and  _177
REMARK   72  A    between atoms: _177  and  _178
REMARK   73  A    between atoms: _181  and  _183
REMARK   74  A    between atoms: _183  and  _184
REMARK   75  A    between atoms: _183  and  _186
REMARK   76  A    between atoms: _186  and  _187
REMARK   77  A    between atoms: _192  and  _193
REMARK   78  A    between atoms: _195  and  _197
REMARK   79  A    between atoms: _197  and  _198
REMARK   80  A    between atoms: _197  and  _200
REMARK   81  A    between atoms: _200  and  _201
REMARK   82  A    between atoms: _201  and  _202
REMARK   83  A    between atoms: _202  and  _203
REMARK   84  A    between atoms: _212  and  _214
REMARK   85  A    between atoms: _214  and  _215
REMARK   86  A    between atoms: _214  and  _217
REMARK   87  A    between atoms: _217  and  _218
REMARK   88  A    between atoms: _218  and  _219
REMARK   89  A    between atoms: _222  and  _224
REMARK   90  A    between atoms: _224  and  _225
REMARK   91  A    between atoms: _224  and  _227
REMARK   92  A    between atoms: _227  and  _228
REMARK   93  A    between atoms: _228  and  _229
REMARK   94  A    between atoms: _234  and  _236
REMARK   95  A    between atoms: _236  and  _237
REMARK   96  A    between atoms: _236  and  _239
REMARK   97  A    between atoms: _239  and  _240
REMARK   98  A    between atoms: _240  and  _241
REMARK   99  A    between atoms: _241  and  _242
REMARK  100  A    between atoms: _242  and  _243
REMARK  101  A    between atoms: _247  and  _249
REMARK  102  A    between atoms: _249  and  _250
REMARK  103  A    between atoms: _253  and  _255
REMARK  104  A    between atoms: _255  and  _256
REMARK  105  A    between atoms: _255  and  _258
REMARK  106  A    between atoms: _258  and  _259
REMARK  107  A    between atoms: _259  and  _260
REMARK  108  A    between atoms: _260  and  _261
REMARK  109  A    between atoms: _261  and  _262
REMARK  110  A    between atoms: _266  and  _268
REMARK  111  A    between atoms: _268  and  _269
REMARK  112  A    between atoms: _271  and  _273
REMARK  113  A    between atoms: _273  and  _274
REMARK  114  A    between atoms: _273  and  _276
REMARK  115  A    between atoms: _276  and  _277
REMARK  116  A    between atoms: _282  and  _284
REMARK  117  A    between atoms: _284  and  _285
REMARK  118  A    between atoms: _284  and  _287
REMARK  119  A    between atoms: _287  and  _288
REMARK  120  A    between atoms: _288  and  _289
REMARK  121  A    between atoms: _292  and  _294
REMARK  122  A    between atoms: _294  and  _295
REMARK  123  A    between atoms: _294  and  _297
REMARK  124  A    between atoms: _297  and  _298
REMARK  125  A    between atoms: _298  and  _299
REMARK  126  A    between atoms: _304  and  _306
REMARK  127  A    between atoms: _306  and  _307
REMARK  128  A    between atoms: _306  and  _309
REMARK  129  A    between atoms: _309  and  _310
REMARK  130  A    between atoms: _312  and  _314
REMARK  131  A    between atoms: _314  and  _315
REMARK  132  A    between atoms: _314  and  _317
REMARK  133  A    between atoms: _317  and  _318
REMARK  134  A    between atoms: _324  and  _326
REMARK  135  A    between atoms: _326  and  _327
REMARK  136  A    between atoms: _326  and  _329
REMARK  137  A    between atoms: _329  and  _330
REMARK  138  A    between atoms: _330  and  _331
REMARK  139  A    between atoms: _331  and  _332
REMARK  140  A    between atoms: _341  and  _343
REMARK  141  A    between atoms: _343  and  _344
REMARK  142  A    between atoms: _343  and  _346
REMARK  143  A    between atoms: _349  and  _351
REMARK  144  A    between atoms: _351  and  _352
REMARK  145  A    between atoms: _351  and  _354
REMARK  146  A    between atoms: _354  and  _355
REMARK  147  A    between atoms: _358  and  _360
REMARK  148  A    between atoms: _360  and  _361
REMARK  149  A    between atoms: _360  and  _363
REMARK  150  A    between atoms: _363  and  _364
REMARK  151  A    between atoms: _367  and  _369
REMARK  152  A    between atoms: _369  and  _370
REMARK  153  A    between atoms: _369  and  _372
REMARK  154  A    between atoms: _372  and  _373
REMARK  155  A    between atoms: _373  and  _374
REMARK  156  A    between atoms: _374  and  _375
REMARK  157  A    between atoms: _384  and  _386
REMARK  158  A    between atoms: _386  and  _387
REMARK  159  A    between atoms: _386  and  _389
REMARK  160  A    between atoms: _389  and  _390
REMARK  161  A    between atoms: _393  and  _395
REMARK  162  A    between atoms: _395  and  _396
REMARK  163  A    between atoms: _395  and  _398
REMARK  164  A    between atoms: _398  and  _399
REMARK  165  A    between atoms: _402  and  _404
REMARK  166  A    between atoms: _404  and  _405
REMARK  167  A    between atoms: _404  and  _407
REMARK  168  A    between atoms: _407  and  _408
REMARK  169  A    between atoms: _411  and  _413
REMARK  170  A    between atoms: _413  and  _414
REMARK  171  A    between atoms: _413  and  _416
REMARK  172  A    between atoms: _416  and  _417
REMARK  173  A    between atoms: _422  and  _423
REMARK  174  A    between atoms: _425  and  _427
REMARK  175  A    between atoms: _427  and  _428
REMARK  176  A    between atoms: _427  and  _430
REMARK  177  A    between atoms: _430  and  _431
REMARK  178  A    between atoms: _436  and  _437
REMARK  179  A    between atoms: _439  and  _441
REMARK  180  A    between atoms: _441  and  _442
REMARK  181  A    between atoms: _441  and  _444
REMARK  182  A    between atoms: _444  and  _445
REMARK  183  A    between atoms: _448  and  _450
REMARK  184  A    between atoms: _450  and  _451
REMARK  185  A    between atoms: _450  and  _453
REMARK  186  A    between atoms: _456  and  _458
REMARK  187  A    between atoms: _458  and  _459
REMARK  188  A    between atoms: _458  and  _461
REMARK  189  A    between atoms: _461  and  _462
REMARK  190  A    between atoms: _465  and  _467
REMARK  191  A    between atoms: _467  and  _468
REMARK  192  A    between atoms: _467  and  _470
REMARK  193  A    between atoms: _470  and  _471
REMARK  194  A    between atoms: _473  and  _475
REMARK  195  A    between atoms: _475  and  _476
REMARK  196  A    between atoms: _478  and  _480
REMARK  197  A    between atoms: _480  and  _481
REMARK  198  A    between atoms: _480  and  _483
REMARK  199  A    between atoms: _483  and  _484
REMARK  200  A    between atoms: _489  and  _490
REMARK  201  A    between atoms: _492  and  _494
REMARK  202  A    between atoms: _494  and  _495
REMARK  203  A    between atoms: _494  and  _497
REMARK  204  A    between atoms: _497  and  _498
REMARK  205  A    between atoms: _498  and  _499
REMARK  206  A    between atoms: _504  and  _506
REMARK  207  A    between atoms: _506  and  _507
REMARK  208  A    between atoms: _506  and  _509
REMARK  209  A    between atoms: _509  and  _510
REMARK  210  A    between atoms: _510  and  _511
REMARK  211  A    between atoms: _516  and  _518
REMARK  212  A    between atoms: _518  and  _519
REMARK  213  A    between atoms: _518  and  _521
REMARK  214  A    between atoms: _521  and  _522
REMARK  215  A    between atoms: _527  and  _528
REMARK  216  A    between atoms: _530  and  _532
REMARK  217  A    between atoms: _532  and  _533
REMARK  218  A    between atoms: _532  and  _535
REMARK  219  A    between atoms: _535  and  _536
REMARK  220  A    between atoms: _541  and  _542
REMARK  221  A    between atoms: _544  and  _546
REMARK  222  A    between atoms: _546  and  _547
REMARK  223  A    between atoms: _546  and  _549
REMARK  224  A    between atoms: _549  and  _550
REMARK  225  A    between atoms: _555  and  _556
REMARK  226  A    between atoms: _558  and  _560
REMARK  227  A    between atoms: _560  and  _561
REMARK  228  A    between atoms: _560  and  _563
REMARK  229  A    between atoms: _563  and  _564
REMARK  230  A    between atoms: _567  and  _569
REMARK  231  A    between atoms: _569  and  _570
REMARK  232  A    between atoms: _569  and  _572
REMARK  233  A    between atoms: _572  and  _573
REMARK  234  A    between atoms: _583  and  _585
REMARK  235  A    between atoms: _585  and  _586
REMARK  236  A    between atoms: _589  and  _591
REMARK  237  A    between atoms: _591  and  _592
REMARK  238  A    between atoms: _595  and  _597
REMARK  239  A    between atoms: _597  and  _598
REMARK  240  A    between atoms: _597  and  _600
REMARK  241  A    between atoms: _600  and  _601
REMARK  242  A    between atoms: _604  and  _606
REMARK  243  A    between atoms: _606  and  _607
REMARK  244  A    between atoms: _606  and  _609
REMARK  245  A    between atoms: _609  and  _610
REMARK  246  A    between atoms: _613  and  _615
REMARK  247  A    between atoms: _615  and  _616
REMARK  248  A    between atoms: _615  and  _618
REMARK  249  A    between atoms: _618  and  _619
REMARK  250  A    between atoms: _622  and  _624
REMARK  251  A    between atoms: _624  and  _625
REMARK  252  A    between atoms: _624  and  _627
REMARK  253  A    between atoms: _627  and  _628
REMARK  254  A    between atoms: _628  and  _629
REMARK  255  A    between atoms: _629  and  _630
REMARK  256  A    between atoms: _630  and  _631
REMARK  257  A    between atoms: _635  and  _637
REMARK  258  A    between atoms: _637  and  _638
REMARK  259  A    between atoms: _637  and  _640
REMARK  260  A    between atoms: _640  and  _641
REMARK  261  A    between atoms: _646  and  _648
REMARK  262  A    between atoms: _648  and  _649
REMARK  263  A    between atoms: _648  and  _651
REMARK  264  A    between atoms: _651  and  _652
REMARK  265  A    between atoms: _652  and  _653
REMARK  266  A    between atoms: _653  and  _654
REMARK  267  A    between atoms: _654  and  _655
REMARK  268  A    between atoms: _659  and  _661
REMARK  269  A    between atoms: _661  and  _662
REMARK  270  A    between atoms: _661  and  _664
REMARK  271  A    between atoms: _664  and  _665
REMARK  272  A    between atoms: _675  and  _677
REMARK  273  A    between atoms: _677  and  _678
REMARK  274  A    between atoms: _681  and  _683
REMARK  275  A    between atoms: _683  and  _684
REMARK  276  A    between atoms: _686  and  _688
REMARK  277  A    between atoms: _688  and  _689
REMARK  278  A    between atoms: _688  and  _691
REMARK  279  A    between atoms: _691  and  _692
REMARK  280  A    between atoms: _692  and  _693
REMARK  281  A    between atoms: _696  and  _698
REMARK  282  A    between atoms: _698  and  _699
REMARK  283  A    between atoms: _702  and  _704
REMARK  284  A    between atoms: _704  and  _705
REMARK  285  A    between atoms: _704  and  _707
REMARK  286  A    between atoms: _707  and  _708
REMARK  287  A    between atoms: _708  and  _709
REMARK  288  A    between atoms: _712  and  _714
REMARK  289  A    between atoms: _714  and  _715
REMARK  290  A    between atoms: _714  and  _717
REMARK  291  A    between atoms: _717  and  _718
REMARK  292  A    between atoms: _718  and  _719
REMARK  293  A    between atoms: _719  and  _720
REMARK  294  A    between atoms: _729  and  _731
REMARK  295  A    between atoms: _731  and  _732
REMARK  296  A    between atoms: _731  and  _734
REMARK  297  A    between atoms: _734  and  _735
REMARK  298  A    between atoms: _738  and  _740
REMARK  299  A    between atoms: _740  and  _741
REMARK  300  A    between atoms: _740  and  _743
REMARK  301  A    between atoms: _743  and  _744
REMARK  302  A    between atoms: _744  and  _745
REMARK  303  A    between atoms: _745  and  _746
REMARK  304  A    between atoms: _755  and  _757
REMARK  305  A    between atoms: _757  and  _758
REMARK  306  A    between atoms: _761  and  _763
REMARK  307  A    between atoms: _763  and  _764
REMARK  308  A    between atoms: _763  and  _766
REMARK  309  A    between atoms: _766  and  _767
REMARK  310  A    between atoms: _772  and  _773
REMARK  311  A    between atoms: _775  and  _777
REMARK  312  A    between atoms: _777  and  _778
REMARK  313  A    between atoms: _777  and  _780
REMARK  314  A    between atoms: _780  and  _781
REMARK  315  A    between atoms: _784  and  _786
REMARK  316  A    between atoms: _786  and  _787
REMARK  317  A    between atoms: _786  and  _789
REMARK  318  A    between atoms: _789  and  _790
REMARK  319  A    between atoms: _793  and  _795
REMARK  320  A    between atoms: _795  and  _796
REMARK  321  A    between atoms: _795  and  _798
REMARK  322  A    between atoms: _800  and  _802
REMARK  323  A    between atoms: _802  and  _803
REMARK  324  A    between atoms: _802  and  _805
REMARK  325  A    between atoms: _808  and  _810
REMARK  326  A    between atoms: _810  and  _811
REMARK  327  A    between atoms: _810  and  _813
REMARK  328  A    between atoms: _813  and  _814
REMARK  329  A    between atoms: _814  and  _815
REMARK  330  A    between atoms: _818  and  _820
REMARK  331  A    between atoms: _820  and  _821
REMARK  332  A    between atoms: _820  and  _823
REMARK  333  A    between atoms: _823  and  _824
REMARK  334  A    between atoms: _834  and  _836
REMARK  335  A    between atoms: _836  and  _837
REMARK  336  A    between atoms: _836  and  _839
REMARK  337  A    between atoms: _839  and  _840
REMARK  338  A    between atoms: _843  and  _845
REMARK  339  A    between atoms: _845  and  _846
REMARK  340  A    between atoms: _845  and  _848
REMARK  341  A    between atoms: _848  and  _849
REMARK  342  A    between atoms: _849  and  _850
REMARK  343  A    between atoms: _850  and  _851
REMARK  344  A    between atoms: _860  and  _862
REMARK  345  A    between atoms: _862  and  _863
REMARK  346  A    between atoms: _862  and  _865
REMARK  347  A    between atoms: _865  and  _866
REMARK  348  A    between atoms: _871  and  _872
REMARK  349  A    between atoms: _874  and  _876
REMARK  350  A    between atoms: _876  and  _877
REMARK  351  A    between atoms: _876  and  _879
REMARK  352  A    between atoms: _879  and  _880
REMARK  353  A    between atoms: _880  and  _881
REMARK  354  A    between atoms: _886  and  _888
REMARK  355  A    between atoms: _888  and  _889
REMARK  356  A    between atoms: _888  and  _891
REMARK  357  A    between atoms: _891  and  _892
REMARK  358  A    between atoms: _895  and  _897
REMARK  359  A    between atoms: _897  and  _898
REMARK  360  A    between atoms: _897  and  _900
REMARK  361  A    between atoms: _900  and  _901
REMARK  362  A    between atoms: _903  and  _905
REMARK  363  A    between atoms: _905  and  _906
REMARK  364  A    between atoms: _905  and  _908
REMARK  365  A    between atoms: _908  and  _909
REMARK  366  A    between atoms: _911  and  _913
REMARK  367  A    between atoms: _913  and  _914
REMARK  368  A    between atoms: _913  and  _916
REMARK  369  A    between atoms: _916  and  _917
REMARK  370  A    between atoms: _923  and  _925
REMARK  371  A    between atoms: _925  and  _926
REMARK  372  A    between atoms: _925  and  _928
REMARK  373  A    between atoms: _928  and  _929
REMARK  374  A    between atoms: _929  and  _930
REMARK  375  A    between atoms: _930  and  _931
REMARK  376  A    between atoms: _940  and  _942
REMARK  377  A    between atoms: _942  and  _943
REMARK  378  A    between atoms: _942  and  _945
REMARK  379  A    between atoms: _945  and  _946
REMARK  380  A    between atoms: _946  and  _947
REMARK  381  A    between atoms: _947  and  _948
REMARK  382  A    between atoms: _957  and  _959
REMARK  383  A    between atoms: _959  and  _960
REMARK  384  A    between atoms: _962  and  _964
REMARK  385  A    between atoms: _964  and  _965
REMARK  386  A    between atoms: _964  and  _967
REMARK  387  A    between atoms: _967  and  _968
REMARK  388  A    between atoms: _974  and  _975
REMARK  389  A    between atoms: _980  and  _982
REMARK  390  A    between atoms: _982  and  _983
REMARK  391  A    between atoms: _982  and  _985
REMARK  392  A    between atoms: _985  and  _986
REMARK  393  A    between atoms: _996  and  _998
REMARK  394  A    between atoms: _998  and  _999
REMARK  395  A    between atoms: _998  and  _1001
REMARK  396  A    between atoms: _1001  and  _1002
REMARK  397  A    between atoms: _1002  and  _1003
REMARK  398  A    between atoms: _1003  and  _1004
REMARK  399  A    between atoms: _1013  and  _1015
REMARK  400  A    between atoms: _1015  and  _1016
REMARK  401  A    between atoms: _1015  and  _1018
REMARK  402  A    between atoms: _1018  and  _1019
REMARK  403  A    between atoms: _1021  and  _1023
REMARK  404  A    between atoms: _1023  and  _1024
REMARK  405  A    between atoms: _1027  and  _1029
REMARK  406  A    between atoms: _1029  and  _1030
REMARK  407  A    between atoms: _1029  and  _1032
REMARK  408  A    between atoms: _1032  and  _1033
REMARK  409  A    between atoms: _1036  and  _1038
REMARK  410  A    between atoms: _1038  and  _1039
REMARK  411  A    between atoms: _1038  and  _1041
REMARK  412  A    between atoms: _1041  and  _1042
REMARK  413  A    between atoms: _1042  and  _1043
REMARK  414  A    between atoms: _1043  and  _1044
REMARK  415  A    between atoms: _1053  and  _1055
REMARK  416  A    between atoms: _1055  and  _1056
REMARK  417  A    between atoms: _1055  and  _1058
REMARK  418  A    between atoms: _1061  and  _1063
REMARK  419  A    between atoms: _1063  and  _1064
REMARK  420  A    between atoms: _1066  and  _1068
REMARK  421  A    between atoms: _1068  and  _1069
REMARK  422  A    between atoms: _1068  and  _1071
REMARK  423  A    between atoms: _1071  and  _1072
REMARK                            x       y       z     vdW  Elec       q    Type
REMARK                         _______ _______ _______ _____ _____    ______ ____
ROOT
ATOM      1  O   HOH     1      26.403  36.998  45.501  0.00  0.00    +0.000 OA
ENDROOT
TORSDOF 0
REMARK  Name = ../refined-set-2016/1fo0/1fo0_pocket.pdb
REMARK  423 active torsions:
REMARK  status: ('A' for Active; 'I' for Inactive)
REMARK    1  A    between atoms: _1  and  _3
REMARK    2  A    between atoms: _3  and  _4
REMARK    3  A    between atoms: _3  and  _6
REMARK    4  A    between atoms: _6  and  _7
REMARK    5  A    between atoms: _10  and  _12
REMARK    6  A    between atoms: _12  and  _13
REMARK    7  A    between atoms: _12  and  _15
REMARK    8  A    between atoms: _15  and  _16
REMARK    9  A    between atoms: _16  and  _17
REMARK   10  A    between atoms: _17  and  _18
REMARK   11  A    between atoms: _27  and  _29
REMARK   12  A    between atoms: _29  and  _30
REMARK   13  A    between atoms: _29  and  _32
REMARK   14  A    between atoms: _32  and  _33
REMARK   15  A    between atoms: _38  and  _39
REMARK   16  A    between atoms: _41  and  _43
REMARK   17  A    between atoms: _43  and  _44
REMARK   18  A    between atoms: _43  and  _46
REMARK   19  A    between atoms: _46  and  _47
REMARK   20  A    between atoms: _53  and  _55
REMARK   21  A    between atoms: _55  and  _56
REMARK   22  A    between atoms: _55  and  _58
REMARK   23  A    between atoms: _61  and  _63
REMARK   24  A    between atoms: _63  and  _64
REMARK   25  A    between atoms: _63  and  _66
REMARK   26  A    between atoms: _66  and  _67
REMARK   27  A    between atoms: _70  and  _72
REMARK   28  A    between atoms: _72  and  _73
REMARK   29  A    between atoms: _72  and  _75
REMARK   30  A    between atoms: _75  and  _76
REMARK   31  A    between atoms: _81  and  _82
REMARK   32  A    between atoms: _84  and  _86
REMARK   33  A    between atoms: _86  and  _87
REMARK   34  A    between atoms: _86  and  _89
REMARK   35  A    between atoms: _89  and  _90
REMARK   36  A    between atoms: _90  and  _91
REMARK   37  A    between atoms: _93  and  _95
REMARK   38  A    between atoms: _95  and  _96
REMARK   39  A    between atoms: _95  and  _98
REMARK   40  A    between atoms: _98  and  _99
REMARK   41  A    between atoms: _99  and  _100
REMARK   42  A    between atoms: _103  and  _105
REMARK   43  A    between atoms: _105  and  _106
REMARK   44  A    between atoms: _105  and  _108
REMARK   45  A    between atoms: _111  and  _113
REMARK   46  A    between atoms: _113  and  _114
REMARK   47  A    between atoms: _116  and  _118
REMARK   48  A    between atoms: _118  and  _119
REMARK   49  A    between atoms: _118  and  _121
REMARK   50  A    between atoms: _121  and  _122
REMARK   51  A    between atoms: _128  and  _130
REMARK   52  A    between atoms: _130  and  _131
REMARK   53  A    between atoms: _130  and  _133
REMARK   54  A    between atoms: _136  and  _138
REMARK   55  A    between atoms: _138  and  _139
REMARK   56  A    between atoms: _138  and  _141
REMARK   57  A    between atoms: _141  and  _142
REMARK   58  A    between atoms: _148  and  _150
REMARK   59  A    between atoms: _150  and  _151
REMARK   60  A    between atoms: _150  and  _153
REMARK   61  A    between atoms: _153  and  _154
REMARK   62  A    between atoms: _159  and  _160
REMARK   63  A    between atoms: _162  and  _164
REMARK   64  A    between atoms: _164  and  _165
REMARK   65  A    between atoms: _164  and  _167
REMARK   66  A    between atoms: _167  and  _168
REMARK   67  A    between atoms: _168  and  _169
REMARK   68  A    between atoms: _171  and  _173
REMARK   69  A    between atoms: _173  and  _174
REMARK   70  A    between atoms: _173  and  _176
REMARK   71  A    between atoms: _176  and  _177
REMARK   72  A    between atoms: _177  and  _178
REMARK   73  A    between atoms: _181  and  _183
REMARK   74  A    between atoms: _183  and  _184
REMARK   75  A    between atoms: _183  and  _186
REMARK   76  A    between atoms: _186  and  _187
REMARK   77  A    between atoms: _192  and  _193
REMARK   78  A    between atoms: _195  and  _197
REMARK   79  A    between atoms: _197  and  _198
REMARK   80  A    between atoms: _197  and  _200
REMARK   81  A    between atoms: _200  and  _201
REMARK   82  A    between atoms: _201  and  _202
REMARK   83  A    between atoms: _202  and  _203
REMARK   84  A    between atoms: _212  and  _214
REMARK   85  A    between atoms: _214  and  _215
REMARK   86  A    between atoms: _214  and  _217
REMARK   87  A    between atoms: _217  and  _218
REMARK   88  A    between atoms: _218  and  _219
REMARK   89  A    between atoms: _222  and  _224
REMARK   90  A    between atoms: _224  and  _225
REMARK   91  A    between atoms: _224  and  _227
REMARK   92  A    between atoms: _227  and  _228
REMARK   93  A    between atoms: _228  and  _229
REMARK   94  A    between atoms: _234  and  _236
REMARK   95  A    between atoms: _236  and  _237
REMARK   96  A    between atoms: _236  and  _239
REMARK   97  A    between atoms: _239  and  _240
REMARK   98  A    between atoms: _240  and  _241
REMARK   99  A    between atoms: _241  and  _242
REMARK  100  A    between atoms: _242  and  _243
REMARK  101  A    between atoms: _247  and  _249
REMARK  102  A    between atoms: _249  and  _250
REMARK  103  A    between atoms: _253  and  _255
REMARK  104  A    between atoms: _255  and  _256
REMARK  105  A    between atoms: _255  and  _258
REMARK  106  A    between atoms: _258  and  _259
REMARK  107  A    between atoms: _259  and  _260
REMARK  108  A    between atoms: _260  and  _261
REMARK  109  A    between atoms: _261  and  _262
REMARK  110  A    between atoms: _266  and  _268
REMARK  111  A    between atoms: _268  and  _269
REMARK  112  A    between atoms: _271  and  _273
REMARK  113  A    between atoms: _273  and  _274
REMARK  114  A    between atoms: _273  and  _276
REMARK  115  A    between atoms: _276  and  _277
REMARK  116  A    between atoms: _282  and  _284
REMARK  117  A    between atoms: _284  and  _285
REMARK  118  A    between atoms: _284  and  _287
REMARK  119  A    between atoms: _287  and  _288
REMARK  120  A    between atoms: _288  and  _289
REMARK  121  A    between atoms: _292  and  _294
REMARK  122  A    between atoms: _294  and  _295
REMARK  123  A    between atoms: _294  and  _297
REMARK  124  A    between atoms: _297  and  _298
REMARK  125  A    between atoms: _298  and  _299
REMARK  126  A    between atoms: _304  and  _306
REMARK  127  A    between atoms: _306  and  _307
REMARK  128  A    between atoms: _306  and  _309
REMARK  129  A    between atoms: _309  and  _310
REMARK  130  A    between atoms: _312  and  _314
REMARK  131  A    between atoms: _314  and  _315
REMARK  132  A    between atoms: _314  and  _317
REMARK  133  A    between atoms: _317  and  _318
REMARK  134  A    between atoms: _324  and  _326
REMARK  135  A    between atoms: _326  and  _327
REMARK  136  A    between atoms: _326  and  _329
REMARK  137  A    between atoms: _329  and  _330
REMARK  138  A    between atoms: _330  and  _331
REMARK  139  A    between atoms: _331  and  _332
REMARK  140  A    between atoms: _341  and  _343
REMARK  141  A    between atoms: _343  and  _344
REMARK  142  A    between atoms: _343  and  _346
REMARK  143  A    between atoms: _349  and  _351
REMARK  144  A    between atoms: _351  and  _352
REMARK  145  A    between atoms: _351  and  _354
REMARK  146  A    between atoms: _354  and  _355
REMARK  147  A    between atoms: _358  and  _360
REMARK  148  A    between atoms: _360  and  _361
REMARK  149  A    between atoms: _360  and  _363
REMARK  150  A    between atoms: _363  and  _364
REMARK  151  A    between atoms: _367  and  _369
REMARK  152  A    between atoms: _369  and  _370
REMARK  153  A    between atoms: _369  and  _372
REMARK  154  A    between atoms: _372  and  _373
REMARK  155  A    between atoms: _373  and  _374
REMARK  156  A    between atoms: _374  and  _375
REMARK  157  A    between atoms: _384  and  _386
REMARK  158  A    between atoms: _386  and  _387
REMARK  159  A    between atoms: _386  and  _389
REMARK  160  A    between atoms: _389  and  _390
REMARK  161  A    between atoms: _393  and  _395
REMARK  162  A    between atoms: _395  and  _396
REMARK  163  A    between atoms: _395  and  _398
REMARK  164  A    between atoms: _398  and  _399
REMARK  165  A    between atoms: _402  and  _404
REMARK  166  A    between atoms: _404  and  _405
REMARK  167  A    between atoms: _404  and  _407
REMARK  168  A    between atoms: _407  and  _408
REMARK  169  A    between atoms: _411  and  _413
REMARK  170  A    between atoms: _413  and  _414
REMARK  171  A    between atoms: _413  and  _416
REMARK  172  A    between atoms: _416  and  _417
REMARK  173  A    between atoms: _422  and  _423
REMARK  174  A    between atoms: _425  and  _427
REMARK  175  A    between atoms: _427  and  _428
REMARK  176  A    between atoms: _427  and  _430
REMARK  177  A    between atoms: _430  and  _431
REMARK  178  A    between atoms: _436  and  _437
REMARK  179  A    between atoms: _439  and  _441
REMARK  180  A    between atoms: _441  and  _442
REMARK  181  A    between atoms: _441  and  _444
REMARK  182  A    between atoms: _444  and  _445
REMARK  183  A    between atoms: _448  and  _450
REMARK  184  A    between atoms: _450  and  _451
REMARK  185  A    between atoms: _450  and  _453
REMARK  186  A    between atoms: _456  and  _458
REMARK  187  A    between atoms: _458  and  _459
REMARK  188  A    between atoms: _458  and  _461
REMARK  189  A    between atoms: _461  and  _462
REMARK  190  A    between atoms: _465  and  _467
REMARK  191  A    between atoms: _467  and  _468
REMARK  192  A    between atoms: _467  and  _470
REMARK  193  A    between atoms: _470  and  _471
REMARK  194  A    between atoms: _473  and  _475
REMARK  195  A    between atoms: _475  and  _476
REMARK  196  A    between atoms: _478  and  _480
REMARK  197  A    between atoms: _480  and  _481
REMARK  198  A    between atoms: _480  and  _483
REMARK  199  A    between atoms: _483  and  _484
REMARK  200  A    between atoms: _489  and  _490
REMARK  201  A    between atoms: _492  and  _494
REMARK  202  A    between atoms: _494  and  _495
REMARK  203  A    between atoms: _494  and  _497
REMARK  204  A    between atoms: _497  and  _498
REMARK  205  A    between atoms: _498  and  _499
REMARK  206  A    between atoms: _504  and  _506
REMARK  207  A    between atoms: _506  and  _507
REMARK  208  A    between atoms: _506  and  _509
REMARK  209  A    between atoms: _509  and  _510
REMARK  210  A    between atoms: _510  and  _511
REMARK  211  A    between atoms: _516  and  _518
REMARK  212  A    between atoms: _518  and  _519
REMARK  213  A    between atoms: _518  and  _521
REMARK  214  A    between atoms: _521  and  _522
REMARK  215  A    between atoms: _527  and  _528
REMARK  216  A    between atoms: _530  and  _532
REMARK  217  A    between atoms: _532  and  _533
REMARK  218  A    between atoms: _532  and  _535
REMARK  219  A    between atoms: _535  and  _536
REMARK  220  A    between atoms: _541  and  _542
REMARK  221  A    between atoms: _544  and  _546
REMARK  222  A    between atoms: _546  and  _547
REMARK  223  A    between atoms: _546  and  _549
REMARK  224  A    between atoms: _549  and  _550
REMARK  225  A    between atoms: _555  and  _556
REMARK  226  A    between atoms: _558  and  _560
REMARK  227  A    between atoms: _560  and  _561
REMARK  228  A    between atoms: _560  and  _563
REMARK  229  A    between atoms: _563  and  _564
REMARK  230  A    between atoms: _567  and  _569
REMARK  231  A    between atoms: _569  and  _570
REMARK  232  A    between atoms: _569  and  _572
REMARK  233  A    between atoms: _572  and  _573
REMARK  234  A    between atoms: _583  and  _585
REMARK  235  A    between atoms: _585  and  _586
REMARK  236  A    between atoms: _589  and  _591
REMARK  237  A    between atoms: _591  and  _592
REMARK  238  A    between atoms: _595  and  _597
REMARK  239  A    between atoms: _597  and  _598
REMARK  240  A    between atoms: _597  and  _600
REMARK  241  A    between atoms: _600  and  _601
REMARK  242  A    between atoms: _604  and  _606
REMARK  243  A    between atoms: _606  and  _607
REMARK  244  A    between atoms: _606  and  _609
REMARK  245  A    between atoms: _609  and  _610
REMARK  246  A    between atoms: _613  and  _615
REMARK  247  A    between atoms: _615  and  _616
REMARK  248  A    between atoms: _615  and  _618
REMARK  249  A    between atoms: _618  and  _619
REMARK  250  A    between atoms: _622  and  _624
REMARK  251  A    between atoms: _624  and  _625
REMARK  252  A    between atoms: _624  and  _627
REMARK  253  A    between atoms: _627  and  _628
REMARK  254  A    between atoms: _628  and  _629
REMARK  255  A    between atoms: _629  and  _630
REMARK  256  A    between atoms: _630  and  _631
REMARK  257  A    between atoms: _635  and  _637
REMARK  258  A    between atoms: _637  and  _638
REMARK  259  A    between atoms: _637  and  _640
REMARK  260  A    between atoms: _640  and  _641
REMARK  261  A    between atoms: _646  and  _648
REMARK  262  A    between atoms: _648  and  _649
REMARK  263  A    between atoms: _648  and  _651
REMARK  264  A    between atoms: _651  and  _652
REMARK  265  A    between atoms: _652  and  _653
REMARK  266  A    between atoms: _653  and  _654
REMARK  267  A    between atoms: _654  and  _655
REMARK  268  A    between atoms: _659  and  _661
REMARK  269  A    between atoms: _661  and  _662
REMARK  270  A    between atoms: _661  and  _664
REMARK  271  A    between atoms: _664  and  _665
REMARK  272  A    between atoms: _675  and  _677
REMARK  273  A    between atoms: _677  and  _678
REMARK  274  A    between atoms: _681  and  _683
REMARK  275  A    between atoms: _683  and  _684
REMARK  276  A    between atoms: _686  and  _688
REMARK  277  A    between atoms: _688  and  _689
REMARK  278  A    between atoms: _688  and  _691
REMARK  279  A    between atoms: _691  and  _692
REMARK  280  A    between atoms: _692  and  _693
REMARK  281  A    between atoms: _696  and  _698
REMARK  282  A    between atoms: _698  and  _699
REMARK  283  A    between atoms: _702  and  _704
REMARK  284  A    between atoms: _704  and  _705
REMARK  285  A    between atoms: _704  and  _707
REMARK  286  A    between atoms: _707  and  _708
REMARK  287  A    between atoms: _708  and  _709
REMARK  288  A    between atoms: _712  and  _714
REMARK  289  A    between atoms: _714  and  _715
REMARK  290  A    between atoms: _714  and  _717
REMARK  291  A    between atoms: _717  and  _718
REMARK  292  A    between atoms: _718  and  _719
REMARK  293  A    between atoms: _719  and  _720
REMARK  294  A    between atoms: _729  and  _731
REMARK  295  A    between atoms: _731  and  _732
REMARK  296  A    between atoms: _731  and  _734
REMARK  297  A    between atoms: _734  and  _735
REMARK  298  A    between atoms: _738  and  _740
REMARK  299  A    between atoms: _740  and  _741
REMARK  300  A    between atoms: _740  and  _743
REMARK  301  A    between atoms: _743  and  _744
REMARK  302  A    between atoms: _744  and  _745
REMARK  303  A    between atoms: _745  and  _746
REMARK  304  A    between atoms: _755  and  _757
REMARK  305  A    between atoms: _757  and  _758
REMARK  306  A    between atoms: _761  and  _763
REMARK  307  A    between atoms: _763  and  _764
REMARK  308  A    between atoms: _763  and  _766
REMARK  309  A    between atoms: _766  and  _767
REMARK  310  A    between atoms: _772  and  _773
REMARK  311  A    between atoms: _775  and  _777
REMARK  312  A    between atoms: _777  and  _778
REMARK  313  A    between atoms: _777  and  _780
REMARK  314  A    between atoms: _780  and  _781
REMARK  315  A    between atoms: _784  and  _786
REMARK  316  A    between atoms: _786  and  _787
REMARK  317  A    between atoms: _786  and  _789
REMARK  318  A    between atoms: _789  and  _790
REMARK  319  A    between atoms: _793  and  _795
REMARK  320  A    between atoms: _795  and  _796
REMARK  321  A    between atoms: _795  and  _798
REMARK  322  A    between atoms: _800  and  _802
REMARK  323  A    between atoms: _802  and  _803
REMARK  324  A    between atoms: _802  and  _805
REMARK  325  A    between atoms: _808  and  _810
REMARK  326  A    between atoms: _810  and  _811
REMARK  327  A    between atoms: _810  and  _813
REMARK  328  A    between atoms: _813  and  _814
REMARK  329  A    between atoms: _814  and  _815
REMARK  330  A    between atoms: _818  and  _820
REMARK  331  A    between atoms: _820  and  _821
REMARK  332  A    between atoms: _820  and  _823
REMARK  333  A    between atoms: _823  and  _824
REMARK  334  A    between atoms: _834  and  _836
REMARK  335  A    between atoms: _836  and  _837
REMARK  336  A    between atoms: _836  and  _839
REMARK  337  A    between atoms: _839  and  _840
REMARK  338  A    between atoms: _843  and  _845
REMARK  339  A    between atoms: _845  and  _846
REMARK  340  A    between atoms: _845  and  _848
REMARK  341  A    between atoms: _848  and  _849
REMARK  342  A    between atoms: _849  and  _850
REMARK  343  A    between atoms: _850  and  _851
REMARK  344  A    between atoms: _860  and  _862
REMARK  345  A    between atoms: _862  and  _863
REMARK  346  A    between atoms: _862  and  _865
REMARK  347  A    between atoms: _865  and  _866
REMARK  348  A    between atoms: _871  and  _872
REMARK  349  A    between atoms: _874  and  _876
REMARK  350  A    between atoms: _876  and  _877
REMARK  351  A    between atoms: _876  and  _879
REMARK  352  A    between atoms: _879  and  _880
REMARK  353  A    between atoms: _880  and  _881
REMARK  354  A    between atoms: _886  and  _888
REMARK  355  A    between atoms: _888  and  _889
REMARK  356  A    between atoms: _888  and  _891
REMARK  357  A    between atoms: _891  and  _892
REMARK  358  A    between atoms: _895  and  _897
REMARK  359  A    between atoms: _897  and  _898
REMARK  360  A    between atoms: _897  and  _900
REMARK  361  A    between atoms: _900  and  _901
REMARK  362  A    between atoms: _903  and  _905
REMARK  363  A    between atoms: _905  and  _906
REMARK  364  A    between atoms: _905  and  _908
REMARK  365  A    between atoms: _908  and  _909
REMARK  366  A    between atoms: _911  and  _913
REMARK  367  A    between atoms: _913  and  _914
REMARK  368  A    between atoms: _913  and  _916
REMARK  369  A    between atoms: _916  and  _917
REMARK  370  A    between atoms: _923  and  _925
REMARK  371  A    between atoms: _925  and  _926
REMARK  372  A    between atoms: _925  and  _928
REMARK  373  A    between atoms: _928  and  _929
REMARK  374  A    between atoms: _929  and  _930
REMARK  375  A    between atoms: _930  and  _931
REMARK  376  A    between atoms: _940  and  _942
REMARK  377  A    between atoms: _942  and  _943
REMARK  378  A    between atoms: _942  and  _945
REMARK  379  A    between atoms: _945  and  _946
REMARK  380  A    between atoms: _946  and  _947
REMARK  381  A    between atoms: _947  and  _948
REMARK  382  A    between atoms: _957  and  _959
REMARK  383  A    between atoms: _959  and  _960
REMARK  384  A    between atoms: _962  and  _964
REMARK  385  A    between atoms: _964  and  _965
REMARK  386  A    between atoms: _964  and  _967
REMARK  387  A    between atoms: _967  and  _968
REMARK  388  A    between atoms: _974  and  _975
REMARK  389  A    between atoms: _980  and  _982
REMARK  390  A    between atoms: _982  and  _983
REMARK  391  A    between atoms: _982  and  _985
REMARK  392  A    between atoms: _985  and  _986
REMARK  393  A    between atoms: _996  and  _998
REMARK  394  A    between atoms: _998  and  _999
REMARK  395  A    between atoms: _998  and  _1001
REMARK  396  A    between atoms: _1001  and  _1002
REMARK  397  A    between atoms: _1002  and  _1003
REMARK  398  A    between atoms: _1003  and  _1004
REMARK  399  A    between atoms: _1013  and  _1015
REMARK  400  A    between atoms: _1015  and  _1016
REMARK  401  A    between atoms: _1015  and  _1018
REMARK  402  A    between atoms: _1018  and  _1019
REMARK  403  A    between atoms: _1021  and  _1023
REMARK  404  A    between atoms: _1023  and  _1024
REMARK  405  A    between atoms: _1027  and  _1029
REMARK  406  A    between atoms: _1029  and  _1030
REMARK  407  A    between atoms: _1029  and  _1032
REMARK  408  A    between atoms: _1032  and  _1033
REMARK  409  A    between atoms: _1036  and  _1038
REMARK  410  A    between atoms: _1038  and  _1039
REMARK  411  A    between atoms: _1038  and  _1041
REMARK  412  A    between atoms: _1041  and  _1042
REMARK  413  A    between atoms: _1042  and  _1043
REMARK  414  A    between atoms: _1043  and  _1044
REMARK  415  A    between atoms: _1053  and  _1055
REMARK  416  A    between atoms: _1055  and  _1056
REMARK  417  A    between atoms: _1055  and  _1058
REMARK  418  A    between atoms: _1061  and  _1063
REMARK  419  A    between atoms: _1063  and  _1064
REMARK  420  A    between atoms: _1066  and  _1068
REMARK  421  A    between atoms: _1068  and  _1069
REMARK  422  A    between atoms: _1068  and  _1071
REMARK  423  A    between atoms: _1071  and  _1072
REMARK                            x       y       z     vdW  Elec       q    Type
REMARK                         _______ _______ _______ _____ _____    ______ ____
ROOT
ATOM      1  O   HOH     1      25.416  34.569  45.595  0.00  0.00    +0.000 OA
ENDROOT
TORSDOF 0
REMARK  Name = ../refined-set-2016/1fo0/1fo0_pocket.pdb
REMARK  423 active torsions:
REMARK  status: ('A' for Active; 'I' for Inactive)
REMARK    1  A    between atoms: _1  and  _3
REMARK    2  A    between atoms: _3  and  _4
REMARK    3  A    between atoms: _3  and  _6
REMARK    4  A    between atoms: _6  and  _7
REMARK    5  A    between atoms: _10  and  _12
REMARK    6  A    between atoms: _12  and  _13
REMARK    7  A    between atoms: _12  and  _15
REMARK    8  A    between atoms: _15  and  _16
REMARK    9  A    between atoms: _16  and  _17
REMARK   10  A    between atoms: _17  and  _18
REMARK   11  A    between atoms: _27  and  _29
REMARK   12  A    between atoms: _29  and  _30
REMARK   13  A    between atoms: _29  and  _32
REMARK   14  A    between atoms: _32  and  _33
REMARK   15  A    between atoms: _38  and  _39
REMARK   16  A    between atoms: _41  and  _43
REMARK   17  A    between atoms: _43  and  _44
REMARK   18  A    between atoms: _43  and  _46
REMARK   19  A    between atoms: _46  and  _47
REMARK   20  A    between atoms: _53  and  _55
REMARK   21  A    between atoms: _55  and  _56
REMARK   22  A    between atoms: _55  and  _58
REMARK   23  A    between atoms: _61  and  _63
REMARK   24  A    between atoms: _63  and  _64
REMARK   25  A    between atoms: _63  and  _66
REMARK   26  A    between atoms: _66  and  _67
REMARK   27  A    between atoms: _70  and  _72
REMARK   28  A    between atoms: _72  and  _73
REMARK   29  A    between atoms: _72  and  _75
REMARK   30  A    between atoms: _75  and  _76
REMARK   31  A    between atoms: _81  and  _82
REMARK   32  A    between atoms: _84  and  _86
REMARK   33  A    between atoms: _86  and  _87
REMARK   34  A    between atoms: _86  and  _89
REMARK   35  A    between atoms: _89  and  _90
REMARK   36  A    between atoms: _90  and  _91
REMARK   37  A    between atoms: _93  and  _95
REMARK   38  A    between atoms: _95  and  _96
REMARK   39  A    between atoms: _95  and  _98
REMARK   40  A    between atoms: _98  and  _99
REMARK   41  A    between atoms: _99  and  _100
REMARK   42  A    between atoms: _103  and  _105
REMARK   43  A    between atoms: _105  and  _106
REMARK   44  A    between atoms: _105  and  _108
REMARK   45  A    between atoms: _111  and  _113
REMARK   46  A    between atoms: _113  and  _114
REMARK   47  A    between atoms: _116  and  _118
REMARK   48  A    between atoms: _118  and  _119
REMARK   49  A    between atoms: _118  and  _121
REMARK   50  A    between atoms: _121  and  _122
REMARK   51  A    between atoms: _128  and  _130
REMARK   52  A    between atoms: _130  and  _131
REMARK   53  A    between atoms: _130  and  _133
REMARK   54  A    between atoms: _136  and  _138
REMARK   55  A    between atoms: _138  and  _139
REMARK   56  A    between atoms: _138  and  _141
REMARK   57  A    between atoms: _141  and  _142
REMARK   58  A    between atoms: _148  and  _150
REMARK   59  A    between atoms: _150  and  _151
REMARK   60  A    between atoms: _150  and  _153
REMARK   61  A    between atoms: _153  and  _154
REMARK   62  A    between atoms: _159  and  _160
REMARK   63  A    between atoms: _162  and  _164
REMARK   64  A    between atoms: _164  and  _165
REMARK   65  A    between atoms: _164  and  _167
REMARK   66  A    between atoms: _167  and  _168
REMARK   67  A    between atoms: _168  and  _169
REMARK   68  A    between atoms: _171  and  _173
REMARK   69  A    between atoms: _173  and  _174
REMARK   70  A    between atoms: _173  and  _176
REMARK   71  A    between atoms: _176  and  _177
REMARK   72  A    between atoms: _177  and  _178
REMARK   73  A    between atoms: _181  and  _183
REMARK   74  A    between atoms: _183  and  _184
REMARK   75  A    between atoms: _183  and  _186
REMARK   76  A    between atoms: _186  and  _187
REMARK   77  A    between atoms: _192  and  _193
REMARK   78  A    between atoms: _195  and  _197
REMARK   79  A    between atoms: _197  and  _198
REMARK   80  A    between atoms: _197  and  _200
REMARK   81  A    between atoms: _200  and  _201
REMARK   82  A    between atoms: _201  and  _202
REMARK   83  A    between atoms: _202  and  _203
REMARK   84  A    between atoms: _212  and  _214
REMARK   85  A    between atoms: _214  and  _215
REMARK   86  A    between atoms: _214  and  _217
REMARK   87  A    between atoms: _217  and  _218
REMARK   88  A    between atoms: _218  and  _219
REMARK   89  A    between atoms: _222  and  _224
REMARK   90  A    between atoms: _224  and  _225
REMARK   91  A    between atoms: _224  and  _227
REMARK   92  A    between atoms: _227  and  _228
REMARK   93  A    between atoms: _228  and  _229
REMARK   94  A    between atoms: _234  and  _236
REMARK   95  A    between atoms: _236  and  _237
REMARK   96  A    between atoms: _236  and  _239
REMARK   97  A    between atoms: _239  and  _240
REMARK   98  A    between atoms: _240  and  _241
REMARK   99  A    between atoms: _241  and  _242
REMARK  100  A    between atoms: _242  and  _243
REMARK  101  A    between atoms: _247  and  _249
REMARK  102  A    between atoms: _249  and  _250
REMARK  103  A    between atoms: _253  and  _255
REMARK  104  A    between atoms: _255  and  _256
REMARK  105  A    between atoms: _255  and  _258
REMARK  106  A    between atoms: _258  and  _259
REMARK  107  A    between atoms: _259  and  _260
REMARK  108  A    between atoms: _260  and  _261
REMARK  109  A    between atoms: _261  and  _262
REMARK  110  A    between atoms: _266  and  _268
REMARK  111  A    between atoms: _268  and  _269
REMARK  112  A    between atoms: _271  and  _273
REMARK  113  A    between atoms: _273  and  _274
REMARK  114  A    between atoms: _273  and  _276
REMARK  115  A    between atoms: _276  and  _277
REMARK  116  A    between atoms: _282  and  _284
REMARK  117  A    between atoms: _284  and  _285
REMARK  118  A    between atoms: _284  and  _287
REMARK  119  A    between atoms: _287  and  _288
REMARK  120  A    between atoms: _288  and  _289
REMARK  121  A    between atoms: _292  and  _294
REMARK  122  A    between atoms: _294  and  _295
REMARK  123  A    between atoms: _294  and  _297
REMARK  124  A    between atoms: _297  and  _298
REMARK  125  A    between atoms: _298  and  _299
REMARK  126  A    between atoms: _304  and  _306
REMARK  127  A    between atoms: _306  and  _307
REMARK  128  A    between atoms: _306  and  _309
REMARK  129  A    between atoms: _309  and  _310
REMARK  130  A    between atoms: _312  and  _314
REMARK  131  A    between atoms: _314  and  _315
REMARK  132  A    between atoms: _314  and  _317
REMARK  133  A    between atoms: _317  and  _318
REMARK  134  A    between atoms: _324  and  _326
REMARK  135  A    between atoms: _326  and  _327
REMARK  136  A    between atoms: _326  and  _329
REMARK  137  A    between atoms: _329  and  _330
REMARK  138  A    between atoms: _330  and  _331
REMARK  139  A    between atoms: _331  and  _332
REMARK  140  A    between atoms: _341  and  _343
REMARK  141  A    between atoms: _343  and  _344
REMARK  142  A    between atoms: _343  and  _346
REMARK  143  A    between atoms: _349  and  _351
REMARK  144  A    between atoms: _351  and  _352
REMARK  145  A    between atoms: _351  and  _354
REMARK  146  A    between atoms: _354  and  _355
REMARK  147  A    between atoms: _358  and  _360
REMARK  148  A    between atoms: _360  and  _361
REMARK  149  A    between atoms: _360  and  _363
REMARK  150  A    between atoms: _363  and  _364
REMARK  151  A    between atoms: _367  and  _369
REMARK  152  A    between atoms: _369  and  _370
REMARK  153  A    between atoms: _369  and  _372
REMARK  154  A    between atoms: _372  and  _373
REMARK  155  A    between atoms: _373  and  _374
REMARK  156  A    between atoms: _374  and  _375
REMARK  157  A    between atoms: _384  and  _386
REMARK  158  A    between atoms: _386  and  _387
REMARK  159  A    between atoms: _386  and  _389
REMARK  160  A    between atoms: _389  and  _390
REMARK  161  A    between atoms: _393  and  _395
REMARK  162  A    between atoms: _395  and  _396
REMARK  163  A    between atoms: _395  and  _398
REMARK  164  A    between atoms: _398  and  _399
REMARK  165  A    between atoms: _402  and  _404
REMARK  166  A    between atoms: _404  and  _405
REMARK  167  A    between atoms: _404  and  _407
REMARK  168  A    between atoms: _407  and  _408
REMARK  169  A    between atoms: _411  and  _413
REMARK  170  A    between atoms: _413  and  _414
REMARK  171  A    between atoms: _413  and  _416
REMARK  172  A    between atoms: _416  and  _417
REMARK  173  A    between atoms: _422  and  _423
REMARK  174  A    between atoms: _425  and  _427
REMARK  175  A    between atoms: _427  and  _428
REMARK  176  A    between atoms: _427  and  _430
REMARK  177  A    between atoms: _430  and  _431
REMARK  178  A    between atoms: _436  and  _437
REMARK  179  A    between atoms: _439  and  _441
REMARK  180  A    between atoms: _441  and  _442
REMARK  181  A    between atoms: _441  and  _444
REMARK  182  A    between atoms: _444  and  _445
REMARK  183  A    between atoms: _448  and  _450
REMARK  184  A    between atoms: _450  and  _451
REMARK  185  A    between atoms: _450  and  _453
REMARK  186  A    between atoms: _456  and  _458
REMARK  187  A    between atoms: _458  and  _459
REMARK  188  A    between atoms: _458  and  _461
REMARK  189  A    between atoms: _461  and  _462
REMARK  190  A    between atoms: _465  and  _467
REMARK  191  A    between atoms: _467  and  _468
REMARK  192  A    between atoms: _467  and  _470
REMARK  193  A    between atoms: _470  and  _471
REMARK  194  A    between atoms: _473  and  _475
REMARK  195  A    between atoms: _475  and  _476
REMARK  196  A    between atoms: _478  and  _480
REMARK  197  A    between atoms: _480  and  _481
REMARK  198  A    between atoms: _480  and  _483
REMARK  199  A    between atoms: _483  and  _484
REMARK  200  A    between atoms: _489  and  _490
REMARK  201  A    between atoms: _492  and  _494
REMARK  202  A    between atoms: _494  and  _495
REMARK  203  A    between atoms: _494  and  _497
REMARK  204  A    between atoms: _497  and  _498
REMARK  205  A    between atoms: _498  and  _499
REMARK  206  A    between atoms: _504  and  _506
REMARK  207  A    between atoms: _506  and  _507
REMARK  208  A    between atoms: _506  and  _509
REMARK  209  A    between atoms: _509  and  _510
REMARK  210  A    between atoms: _510  and  _511
REMARK  211  A    between atoms: _516  and  _518
REMARK  212  A    between atoms: _518  and  _519
REMARK  213  A    between atoms: _518  and  _521
REMARK  214  A    between atoms: _521  and  _522
REMARK  215  A    between atoms: _527  and  _528
REMARK  216  A    between atoms: _530  and  _532
REMARK  217  A    between atoms: _532  and  _533
REMARK  218  A    between atoms: _532  and  _535
REMARK  219  A    between atoms: _535  and  _536
REMARK  220  A    between atoms: _541  and  _542
REMARK  221  A    between atoms: _544  and  _546
REMARK  222  A    between atoms: _546  and  _547
REMARK  223  A    between atoms: _546  and  _549
REMARK  224  A    between atoms: _549  and  _550
REMARK  225  A    between atoms: _555  and  _556
REMARK  226  A    between atoms: _558  and  _560
REMARK  227  A    between atoms: _560  and  _561
REMARK  228  A    between atoms: _560  and  _563
REMARK  229  A    between atoms: _563  and  _564
REMARK  230  A    between atoms: _567  and  _569
REMARK  231  A    between atoms: _569  and  _570
REMARK  232  A    between atoms: _569  and  _572
REMARK  233  A    between atoms: _572  and  _573
REMARK  234  A    between atoms: _583  and  _585
REMARK  235  A    between atoms: _585  and  _586
REMARK  236  A    between atoms: _589  and  _591
REMARK  237  A    between atoms: _591  and  _592
REMARK  238  A    between atoms: _595  and  _597
REMARK  239  A    between atoms: _597  and  _598
REMARK  240  A    between atoms: _597  and  _600
REMARK  241  A    between atoms: _600  and  _601
REMARK  242  A    between atoms: _604  and  _606
REMARK  243  A    between atoms: _606  and  _607
REMARK  244  A    between atoms: _606  and  _609
REMARK  245  A    between atoms: _609  and  _610
REMARK  246  A    between atoms: _613  and  _615
REMARK  247  A    between atoms: _615  and  _616
REMARK  248  A    between atoms: _615  and  _618
REMARK  249  A    between atoms: _618  and  _619
REMARK  250  A    between atoms: _622  and  _624
REMARK  251  A    between atoms: _624  and  _625
REMARK  252  A    between atoms: _624  and  _627
REMARK  253  A    between atoms: _627  and  _628
REMARK  254  A    between atoms: _628  and  _629
REMARK  255  A    between atoms: _629  and  _630
REMARK  256  A    between atoms: _630  and  _631
REMARK  257  A    between atoms: _635  and  _637
REMARK  258  A    between atoms: _637  and  _638
REMARK  259  A    between atoms: _637  and  _640
REMARK  260  A    between atoms: _640  and  _641
REMARK  261  A    between atoms: _646  and  _648
REMARK  262  A    between atoms: _648  and  _649
REMARK  263  A    between atoms: _648  and  _651
REMARK  264  A    between atoms: _651  and  _652
REMARK  265  A    between atoms: _652  and  _653
REMARK  266  A    between atoms: _653  and  _654
REMARK  267  A    between atoms: _654  and  _655
REMARK  268  A    between atoms: _659  and  _661
REMARK  269  A    between atoms: _661  and  _662
REMARK  270  A    between atoms: _661  and  _664
REMARK  271  A    between atoms: _664  and  _665
REMARK  272  A    between atoms: _675  and  _677
REMARK  273  A    between atoms: _677  and  _678
REMARK  274  A    between atoms: _681  and  _683
REMARK  275  A    between atoms: _683  and  _684
REMARK  276  A    between atoms: _686  and  _688
REMARK  277  A    between atoms: _688  and  _689
REMARK  278  A    between atoms: _688  and  _691
REMARK  279  A    between atoms: _691  and  _692
REMARK  280  A    between atoms: _692  and  _693
REMARK  281  A    between atoms: _696  and  _698
REMARK  282  A    between atoms: _698  and  _699
REMARK  283  A    between atoms: _702  and  _704
REMARK  284  A    between atoms: _704  and  _705
REMARK  285  A    between atoms: _704  and  _707
REMARK  286  A    between atoms: _707  and  _708
REMARK  287  A    between atoms: _708  and  _709
REMARK  288  A    between atoms: _712  and  _714
REMARK  289  A    between atoms: _714  and  _715
REMARK  290  A    between atoms: _714  and  _717
REMARK  291  A    between atoms: _717  and  _718
REMARK  292  A    between atoms: _718  and  _719
REMARK  293  A    between atoms: _719  and  _720
REMARK  294  A    between atoms: _729  and  _731
REMARK  295  A    between atoms: _731  and  _732
REMARK  296  A    between atoms: _731  and  _734
REMARK  297  A    between atoms: _734  and  _735
REMARK  298  A    between atoms: _738  and  _740
REMARK  299  A    between atoms: _740  and  _741
REMARK  300  A    between atoms: _740  and  _743
REMARK  301  A    between atoms: _743  and  _744
REMARK  302  A    between atoms: _744  and  _745
REMARK  303  A    between atoms: _745  and  _746
REMARK  304  A    between atoms: _755  and  _757
REMARK  305  A    between atoms: _757  and  _758
REMARK  306  A    between atoms: _761  and  _763
REMARK  307  A    between atoms: _763  and  _764
REMARK  308  A    between atoms: _763  and  _766
REMARK  309  A    between atoms: _766  and  _767
REMARK  310  A    between atoms: _772  and  _773
REMARK  311  A    between atoms: _775  and  _777
REMARK  312  A    between atoms: _777  and  _778
REMARK  313  A    between atoms: _777  and  _780
REMARK  314  A    between atoms: _780  and  _781
REMARK  315  A    between atoms: _784  and  _786
REMARK  316  A    between atoms: _786  and  _787
REMARK  317  A    between atoms: _786  and  _789
REMARK  318  A    between atoms: _789  and  _790
REMARK  319  A    between atoms: _793  and  _795
REMARK  320  A    between atoms: _795  and  _796
REMARK  321  A    between atoms: _795  and  _798
REMARK  322  A    between atoms: _800  and  _802
REMARK  323  A    between atoms: _802  and  _803
REMARK  324  A    between atoms: _802  and  _805
REMARK  325  A    between atoms: _808  and  _810
REMARK  326  A    between atoms: _810  and  _811
REMARK  327  A    between atoms: _810  and  _813
REMARK  328  A    between atoms: _813  and  _814
REMARK  329  A    between atoms: _814  and  _815
REMARK  330  A    between atoms: _818  and  _820
REMARK  331  A    between atoms: _820  and  _821
REMARK  332  A    between atoms: _820  and  _823
REMARK  333  A    between atoms: _823  and  _824
REMARK  334  A    between atoms: _834  and  _836
REMARK  335  A    between atoms: _836  and  _837
REMARK  336  A    between atoms: _836  and  _839
REMARK  337  A    between atoms: _839  and  _840
REMARK  338  A    between atoms: _843  and  _845
REMARK  339  A    between atoms: _845  and  _846
REMARK  340  A    between atoms: _845  and  _848
REMARK  341  A    between atoms: _848  and  _849
REMARK  342  A    between atoms: _849  and  _850
REMARK  343  A    between atoms: _850  and  _851
REMARK  344  A    between atoms: _860  and  _862
REMARK  345  A    between atoms: _862  and  _863
REMARK  346  A    between atoms: _862  and  _865
REMARK  347  A    between atoms: _865  and  _866
REMARK  348  A    between atoms: _871  and  _872
REMARK  349  A    between atoms: _874  and  _876
REMARK  350  A    between atoms: _876  and  _877
REMARK  351  A    between atoms: _876  and  _879
REMARK  352  A    between atoms: _879  and  _880
REMARK  353  A    between atoms: _880  and  _881
REMARK  354  A    between atoms: _886  and  _888
REMARK  355  A    between atoms: _888  and  _889
REMARK  356  A    between atoms: _888  and  _891
REMARK  357  A    between atoms: _891  and  _892
REMARK  358  A    between atoms: _895  and  _897
REMARK  359  A    between atoms: _897  and  _898
REMARK  360  A    between atoms: _897  and  _900
REMARK  361  A    between atoms: _900  and  _901
REMARK  362  A    between atoms: _903  and  _905
REMARK  363  A    between atoms: _905  and  _906
REMARK  364  A    between atoms: _905  and  _908
REMARK  365  A    between atoms: _908  and  _909
REMARK  366  A    between atoms: _911  and  _913
REMARK  367  A    between atoms: _913  and  _914
REMARK  368  A    between atoms: _913  and  _916
REMARK  369  A    between atoms: _916  and  _917
REMARK  370  A    between atoms: _923  and  _925
REMARK  371  A    between atoms: _925  and  _926
REMARK  372  A    between atoms: _925  and  _928
REMARK  373  A    between atoms: _928  and  _929
REMARK  374  A    between atoms: _929  and  _930
REMARK  375  A    between atoms: _930  and  _931
REMARK  376  A    between atoms: _940  and  _942
REMARK  377  A    between atoms: _942  and  _943
REMARK  378  A    between atoms: _942  and  _945
REMARK  379  A    between atoms: _945  and  _946
REMARK  380  A    between atoms: _946  and  _947
REMARK  381  A    between atoms: _947  and  _948
REMARK  382  A    between atoms: _957  and  _959
REMARK  383  A    between atoms: _959  and  _960
REMARK  384  A    between atoms: _962  and  _964
REMARK  385  A    between atoms: _964  and  _965
REMARK  386  A    between atoms: _964  and  _967
REMARK  387  A    between atoms: _967  and  _968
REMARK  388  A    between atoms: _974  and  _975
REMARK  389  A    between atoms: _980  and  _982
REMARK  390  A    between atoms: _982  and  _983
REMARK  391  A    between atoms: _982  and  _985
REMARK  392  A    between atoms: _985  and  _986
REMARK  393  A    between atoms: _996  and  _998
REMARK  394  A    between atoms: _998  and  _999
REMARK  395  A    between atoms: _998  and  _1001
REMARK  396  A    between atoms: _1001  and  _1002
REMARK  397  A    between atoms: _1002  and  _1003
REMARK  398  A    between atoms: _1003  and  _1004
REMARK  399  A    between atoms: _1013  and  _1015
REMARK  400  A    between atoms: _1015  and  _1016
REMARK  401  A    between atoms: _1015  and  _1018
REMARK  402  A    between atoms: _1018  and  _1019
REMARK  403  A    between atoms: _1021  and  _1023
REMARK  404  A    between atoms: _1023  and  _1024
REMARK  405  A    between atoms: _1027  and  _1029
REMARK  406  A    between atoms: _1029  and  _1030
REMARK  407  A    between atoms: _1029  and  _1032
REMARK  408  A    between atoms: _1032  and  _1033
REMARK  409  A    between atoms: _1036  and  _1038
REMARK  410  A    between atoms: _1038  and  _1039
REMARK  411  A    between atoms: _1038  and  _1041
REMARK  412  A    between atoms: _1041  and  _1042
REMARK  413  A    between atoms: _1042  and  _1043
REMARK  414  A    between atoms: _1043  and  _1044
REMARK  415  A    between atoms: _1053  and  _1055
REMARK  416  A    between atoms: _1055  and  _1056
REMARK  417  A    between atoms: _1055  and  _1058
REMARK  418  A    between atoms: _1061  and  _1063
REMARK  419  A    between atoms: _1063  and  _1064
REMARK  420  A    between atoms: _1066  and  _1068
REMARK  421  A    between atoms: _1068  and  _1069
REMARK  422  A    between atoms: _1068  and  _1071
REMARK  423  A    between atoms: _1071  and  _1072
REMARK                            x       y       z     vdW  Elec       q    Type
REMARK                         _______ _______ _______ _____ _____    ______ ____
ROOT
ATOM      1  O   HOH     1       2.197  28.855  55.760  0.00  0.00    +0.000 OA
ENDROOT
TORSDOF 0
REMARK  Name = ../refined-set-2016/1fo0/1fo0_pocket.pdb
REMARK  423 active torsions:
REMARK  status: ('A' for Active; 'I' for Inactive)
REMARK    1  A    between atoms: _1  and  _3
REMARK    2  A    between atoms: _3  and  _4
REMARK    3  A    between atoms: _3  and  _6
REMARK    4  A    between atoms: _6  and  _7
REMARK    5  A    between atoms: _10  and  _12
REMARK    6  A    between atoms: _12  and  _13
REMARK    7  A    between atoms: _12  and  _15
REMARK    8  A    between atoms: _15  and  _16
REMARK    9  A    between atoms: _16  and  _17
REMARK   10  A    between atoms: _17  and  _18
REMARK   11  A    between atoms: _27  and  _29
REMARK   12  A    between atoms: _29  and  _30
REMARK   13  A    between atoms: _29  and  _32
REMARK   14  A    between atoms: _32  and  _33
REMARK   15  A    between atoms: _38  and  _39
REMARK   16  A    between atoms: _41  and  _43
REMARK   17  A    between atoms: _43  and  _44
REMARK   18  A    between atoms: _43  and  _46
REMARK   19  A    between atoms: _46  and  _47
REMARK   20  A    between atoms: _53  and  _55
REMARK   21  A    between atoms: _55  and  _56
REMARK   22  A    between atoms: _55  and  _58
REMARK   23  A    between atoms: _61  and  _63
REMARK   24  A    between atoms: _63  and  _64
REMARK   25  A    between atoms: _63  and  _66
REMARK   26  A    between atoms: _66  and  _67
REMARK   27  A    between atoms: _70  and  _72
REMARK   28  A    between atoms: _72  and  _73
REMARK   29  A    between atoms: _72  and  _75
REMARK   30  A    between atoms: _75  and  _76
REMARK   31  A    between atoms: _81  and  _82
REMARK   32  A    between atoms: _84  and  _86
REMARK   33  A    between atoms: _86  and  _87
REMARK   34  A    between atoms: _86  and  _89
REMARK   35  A    between atoms: _89  and  _90
REMARK   36  A    between atoms: _90  and  _91
REMARK   37  A    between atoms: _93  and  _95
REMARK   38  A    between atoms: _95  and  _96
REMARK   39  A    between atoms: _95  and  _98
REMARK   40  A    between atoms: _98  and  _99
REMARK   41  A    between atoms: _99  and  _100
REMARK   42  A    between atoms: _103  and  _105
REMARK   43  A    between atoms: _105  and  _106
REMARK   44  A    between atoms: _105  and  _108
REMARK   45  A    between atoms: _111  and  _113
REMARK   46  A    between atoms: _113  and  _114
REMARK   47  A    between atoms: _116  and  _118
REMARK   48  A    between atoms: _118  and  _119
REMARK   49  A    between atoms: _118  and  _121
REMARK   50  A    between atoms: _121  and  _122
REMARK   51  A    between atoms: _128  and  _130
REMARK   52  A    between atoms: _130  and  _131
REMARK   53  A    between atoms: _130  and  _133
REMARK   54  A    between atoms: _136  and  _138
REMARK   55  A    between atoms: _138  and  _139
REMARK   56  A    between atoms: _138  and  _141
REMARK   57  A    between atoms: _141  and  _142
REMARK   58  A    between atoms: _148  and  _150
REMARK   59  A    between atoms: _150  and  _151
REMARK   60  A    between atoms: _150  and  _153
REMARK   61  A    between atoms: _153  and  _154
REMARK   62  A    between atoms: _159  and  _160
REMARK   63  A    between atoms: _162  and  _164
REMARK   64  A    between atoms: _164  and  _165
REMARK   65  A    between atoms: _164  and  _167
REMARK   66  A    between atoms: _167  and  _168
REMARK   67  A    between atoms: _168  and  _169
REMARK   68  A    between atoms: _171  and  _173
REMARK   69  A    between atoms: _173  and  _174
REMARK   70  A    between atoms: _173  and  _176
REMARK   71  A    between atoms: _176  and  _177
REMARK   72  A    between atoms: _177  and  _178
REMARK   73  A    between atoms: _181  and  _183
REMARK   74  A    between atoms: _183  and  _184
REMARK   75  A    between atoms: _183  and  _186
REMARK   76  A    between atoms: _186  and  _187
REMARK   77  A    between atoms: _192  and  _193
REMARK   78  A    between atoms: _195  and  _197
REMARK   79  A    between atoms: _197  and  _198
REMARK   80  A    between atoms: _197  and  _200
REMARK   81  A    between atoms: _200  and  _201
REMARK   82  A    between atoms: _201  and  _202
REMARK   83  A    between atoms: _202  and  _203
REMARK   84  A    between atoms: _212  and  _214
REMARK   85  A    between atoms: _214  and  _215
REMARK   86  A    between atoms: _214  and  _217
REMARK   87  A    between atoms: _217  and  _218
REMARK   88  A    between atoms: _218  and  _219
REMARK   89  A    between atoms: _222  and  _224
REMARK   90  A    between atoms: _224  and  _225
REMARK   91  A    between atoms: _224  and  _227
REMARK   92  A    between atoms: _227  and  _228
REMARK   93  A    between atoms: _228  and  _229
REMARK   94  A    between atoms: _234  and  _236
REMARK   95  A    between atoms: _236  and  _237
REMARK   96  A    between atoms: _236  and  _239
REMARK   97  A    between atoms: _239  and  _240
REMARK   98  A    between atoms: _240  and  _241
REMARK   99  A    between atoms: _241  and  _242
REMARK  100  A    between atoms: _242  and  _243
REMARK  101  A    between atoms: _247  and  _249
REMARK  102  A    between atoms: _249  and  _250
REMARK  103  A    between atoms: _253  and  _255
REMARK  104  A    between atoms: _255  and  _256
REMARK  105  A    between atoms: _255  and  _258
REMARK  106  A    between atoms: _258  and  _259
REMARK  107  A    between atoms: _259  and  _260
REMARK  108  A    between atoms: _260  and  _261
REMARK  109  A    between atoms: _261  and  _262
REMARK  110  A    between atoms: _266  and  _268
REMARK  111  A    between atoms: _268  and  _269
REMARK  112  A    between atoms: _271  and  _273
REMARK  113  A    between atoms: _273  and  _274
REMARK  114  A    between atoms: _273  and  _276
REMARK  115  A    between atoms: _276  and  _277
REMARK  116  A    between atoms: _282  and  _284
REMARK  117  A    between atoms: _284  and  _285
REMARK  118  A    between atoms: _284  and  _287
REMARK  119  A    between atoms: _287  and  _288
REMARK  120  A    between atoms: _288  and  _289
REMARK  121  A    between atoms: _292  and  _294
REMARK  122  A    between atoms: _294  and  _295
REMARK  123  A    between atoms: _294  and  _297
REMARK  124  A    between atoms: _297  and  _298
REMARK  125  A    between atoms: _298  and  _299
REMARK  126  A    between atoms: _304  and  _306
REMARK  127  A    between atoms: _306  and  _307
REMARK  128  A    between atoms: _306  and  _309
REMARK  129  A    between atoms: _309  and  _310
REMARK  130  A    between atoms: _312  and  _314
REMARK  131  A    between atoms: _314  and  _315
REMARK  132  A    between atoms: _314  and  _317
REMARK  133  A    between atoms: _317  and  _318
REMARK  134  A    between atoms: _324  and  _326
REMARK  135  A    between atoms: _326  and  _327
REMARK  136  A    between atoms: _326  and  _329
REMARK  137  A    between atoms: _329  and  _330
REMARK  138  A    between atoms: _330  and  _331
REMARK  139  A    between atoms: _331  and  _332
REMARK  140  A    between atoms: _341  and  _343
REMARK  141  A    between atoms: _343  and  _344
REMARK  142  A    between atoms: _343  and  _346
REMARK  143  A    between atoms: _349  and  _351
REMARK  144  A    between atoms: _351  and  _352
REMARK  145  A    between atoms: _351  and  _354
REMARK  146  A    between atoms: _354  and  _355
REMARK  147  A    between atoms: _358  and  _360
REMARK  148  A    between atoms: _360  and  _361
REMARK  149  A    between atoms: _360  and  _363
REMARK  150  A    between atoms: _363  and  _364
REMARK  151  A    between atoms: _367  and  _369
REMARK  152  A    between atoms: _369  and  _370
REMARK  153  A    between atoms: _369  and  _372
REMARK  154  A    between atoms: _372  and  _373
REMARK  155  A    between atoms: _373  and  _374
REMARK  156  A    between atoms: _374  and  _375
REMARK  157  A    between atoms: _384  and  _386
REMARK  158  A    between atoms: _386  and  _387
REMARK  159  A    between atoms: _386  and  _389
REMARK  160  A    between atoms: _389  and  _390
REMARK  161  A    between atoms: _393  and  _395
REMARK  162  A    between atoms: _395  and  _396
REMARK  163  A    between atoms: _395  and  _398
REMARK  164  A    between atoms: _398  and  _399
REMARK  165  A    between atoms: _402  and  _404
REMARK  166  A    between atoms: _404  and  _405
REMARK  167  A    between atoms: _404  and  _407
REMARK  168  A    between atoms: _407  and  _408
REMARK  169  A    between atoms: _411  and  _413
REMARK  170  A    between atoms: _413  and  _414
REMARK  171  A    between atoms: _413  and  _416
REMARK  172  A    between atoms: _416  and  _417
REMARK  173  A    between atoms: _422  and  _423
REMARK  174  A    between atoms: _425  and  _427
REMARK  175  A    between atoms: _427  and  _428
REMARK  176  A    between atoms: _427  and  _430
REMARK  177  A    between atoms: _430  and  _431
REMARK  178  A    between atoms: _436  and  _437
REMARK  179  A    between atoms: _439  and  _441
REMARK  180  A    between atoms: _441  and  _442
REMARK  181  A    between atoms: _441  and  _444
REMARK  182  A    between atoms: _444  and  _445
REMARK  183  A    between atoms: _448  and  _450
REMARK  184  A    between atoms: _450  and  _451
REMARK  185  A    between atoms: _450  and  _453
REMARK  186  A    between atoms: _456  and  _458
REMARK  187  A    between atoms: _458  and  _459
REMARK  188  A    between atoms: _458  and  _461
REMARK  189  A    between atoms: _461  and  _462
REMARK  190  A    between atoms: _465  and  _467
REMARK  191  A    between atoms: _467  and  _468
REMARK  192  A    between atoms: _467  and  _470
REMARK  193  A    between atoms: _470  and  _471
REMARK  194  A    between atoms: _473  and  _475
REMARK  195  A    between atoms: _475  and  _476
REMARK  196  A    between atoms: _478  and  _480
REMARK  197  A    between atoms: _480  and  _481
REMARK  198  A    between atoms: _480  and  _483
REMARK  199  A    between atoms: _483  and  _484
REMARK  200  A    between atoms: _489  and  _490
REMARK  201  A    between atoms: _492  and  _494
REMARK  202  A    between atoms: _494  and  _495
REMARK  203  A    between atoms: _494  and  _497
REMARK  204  A    between atoms: _497  and  _498
REMARK  205  A    between atoms: _498  and  _499
REMARK  206  A    between atoms: _504  and  _506
REMARK  207  A    between atoms: _506  and  _507
REMARK  208  A    between atoms: _506  and  _509
REMARK  209  A    between atoms: _509  and  _510
REMARK  210  A    between atoms: _510  and  _511
REMARK  211  A    between atoms: _516  and  _518
REMARK  212  A    between atoms: _518  and  _519
REMARK  213  A    between atoms: _518  and  _521
REMARK  214  A    between atoms: _521  and  _522
REMARK  215  A    between atoms: _527  and  _528
REMARK  216  A    between atoms: _530  and  _532
REMARK  217  A    between atoms: _532  and  _533
REMARK  218  A    between atoms: _532  and  _535
REMARK  219  A    between atoms: _535  and  _536
REMARK  220  A    between atoms: _541  and  _542
REMARK  221  A    between atoms: _544  and  _546
REMARK  222  A    between atoms: _546  and  _547
REMARK  223  A    between atoms: _546  and  _549
REMARK  224  A    between atoms: _549  and  _550
REMARK  225  A    between atoms: _555  and  _556
REMARK  226  A    between atoms: _558  and  _560
REMARK  227  A    between atoms: _560  and  _561
REMARK  228  A    between atoms: _560  and  _563
REMARK  229  A    between atoms: _563  and  _564
REMARK  230  A    between atoms: _567  and  _569
REMARK  231  A    between atoms: _569  and  _570
REMARK  232  A    between atoms: _569  and  _572
REMARK  233  A    between atoms: _572  and  _573
REMARK  234  A    between atoms: _583  and  _585
REMARK  235  A    between atoms: _585  and  _586
REMARK  236  A    between atoms: _589  and  _591
REMARK  237  A    between atoms: _591  and  _592
REMARK  238  A    between atoms: _595  and  _597
REMARK  239  A    between atoms: _597  and  _598
REMARK  240  A    between atoms: _597  and  _600
REMARK  241  A    between atoms: _600  and  _601
REMARK  242  A    between atoms: _604  and  _606
REMARK  243  A    between atoms: _606  and  _607
REMARK  244  A    between atoms: _606  and  _609
REMARK  245  A    between atoms: _609  and  _610
REMARK  246  A    between atoms: _613  and  _615
REMARK  247  A    between atoms: _615  and  _616
REMARK  248  A    between atoms: _615  and  _618
REMARK  249  A    between atoms: _618  and  _619
REMARK  250  A    between atoms: _622  and  _624
REMARK  251  A    between atoms: _624  and  _625
REMARK  252  A    between atoms: _624  and  _627
REMARK  253  A    between atoms: _627  and  _628
REMARK  254  A    between atoms: _628  and  _629
REMARK  255  A    between atoms: _629  and  _630
REMARK  256  A    between atoms: _630  and  _631
REMARK  257  A    between atoms: _635  and  _637
REMARK  258  A    between atoms: _637  and  _638
REMARK  259  A    between atoms: _637  and  _640
REMARK  260  A    between atoms: _640  and  _641
REMARK  261  A    between atoms: _646  and  _648
REMARK  262  A    between atoms: _648  and  _649
REMARK  263  A    between atoms: _648  and  _651
REMARK  264  A    between atoms: _651  and  _652
REMARK  265  A    between atoms: _652  and  _653
REMARK  266  A    between atoms: _653  and  _654
REMARK  267  A    between atoms: _654  and  _655
REMARK  268  A    between atoms: _659  and  _661
REMARK  269  A    between atoms: _661  and  _662
REMARK  270  A    between atoms: _661  and  _664
REMARK  271  A    between atoms: _664  and  _665
REMARK  272  A    between atoms: _675  and  _677
REMARK  273  A    between atoms: _677  and  _678
REMARK  274  A    between atoms: _681  and  _683
REMARK  275  A    between atoms: _683  and  _684
REMARK  276  A    between atoms: _686  and  _688
REMARK  277  A    between atoms: _688  and  _689
REMARK  278  A    between atoms: _688  and  _691
REMARK  279  A    between atoms: _691  and  _692
REMARK  280  A    between atoms: _692  and  _693
REMARK  281  A    between atoms: _696  and  _698
REMARK  282  A    between atoms: _698  and  _699
REMARK  283  A    between atoms: _702  and  _704
REMARK  284  A    between atoms: _704  and  _705
REMARK  285  A    between atoms: _704  and  _707
REMARK  286  A    between atoms: _707  and  _708
REMARK  287  A    between atoms: _708  and  _709
REMARK  288  A    between atoms: _712  and  _714
REMARK  289  A    between atoms: _714  and  _715
REMARK  290  A    between atoms: _714  and  _717
REMARK  291  A    between atoms: _717  and  _718
REMARK  292  A    between atoms: _718  and  _719
REMARK  293  A    between atoms: _719  and  _720
REMARK  294  A    between atoms: _729  and  _731
REMARK  295  A    between atoms: _731  and  _732
REMARK  296  A    between atoms: _731  and  _734
REMARK  297  A    between atoms: _734  and  _735
REMARK  298  A    between atoms: _738  and  _740
REMARK  299  A    between atoms: _740  and  _741
REMARK  300  A    between atoms: _740  and  _743
REMARK  301  A    between atoms: _743  and  _744
REMARK  302  A    between atoms: _744  and  _745
REMARK  303  A    between atoms: _745  and  _746
REMARK  304  A    between atoms: _755  and  _757
REMARK  305  A    between atoms: _757  and  _758
REMARK  306  A    between atoms: _761  and  _763
REMARK  307  A    between atoms: _763  and  _764
REMARK  308  A    between atoms: _763  and  _766
REMARK  309  A    between atoms: _766  and  _767
REMARK  310  A    between atoms: _772  and  _773
REMARK  311  A    between atoms: _775  and  _777
REMARK  312  A    between atoms: _777  and  _778
REMARK  313  A    between atoms: _777  and  _780
REMARK  314  A    between atoms: _780  and  _781
REMARK  315  A    between atoms: _784  and  _786
REMARK  316  A    between atoms: _786  and  _787
REMARK  317  A    between atoms: _786  and  _789
REMARK  318  A    between atoms: _789  and  _790
REMARK  319  A    between atoms: _793  and  _795
REMARK  320  A    between atoms: _795  and  _796
REMARK  321  A    between atoms: _795  and  _798
REMARK  322  A    between atoms: _800  and  _802
REMARK  323  A    between atoms: _802  and  _803
REMARK  324  A    between atoms: _802  and  _805
REMARK  325  A    between atoms: _808  and  _810
REMARK  326  A    between atoms: _810  and  _811
REMARK  327  A    between atoms: _810  and  _813
REMARK  328  A    between atoms: _813  and  _814
REMARK  329  A    between atoms: _814  and  _815
REMARK  330  A    between atoms: _818  and  _820
REMARK  331  A    between atoms: _820  and  _821
REMARK  332  A    between atoms: _820  and  _823
REMARK  333  A    between atoms: _823  and  _824
REMARK  334  A    between atoms: _834  and  _836
REMARK  335  A    between atoms: _836  and  _837
REMARK  336  A    between atoms: _836  and  _839
REMARK  337  A    between atoms: _839  and  _840
REMARK  338  A    between atoms: _843  and  _845
REMARK  339  A    between atoms: _845  and  _846
REMARK  340  A    between atoms: _845  and  _848
REMARK  341  A    between atoms: _848  and  _849
REMARK  342  A    between atoms: _849  and  _850
REMARK  343  A    between atoms: _850  and  _851
REMARK  344  A    between atoms: _860  and  _862
REMARK  345  A    between atoms: _862  and  _863
REMARK  346  A    between atoms: _862  and  _865
REMARK  347  A    between atoms: _865  and  _866
REMARK  348  A    between atoms: _871  and  _872
REMARK  349  A    between atoms: _874  and  _876
REMARK  350  A    between atoms: _876  and  _877
REMARK  351  A    between atoms: _876  and  _879
REMARK  352  A    between atoms: _879  and  _880
REMARK  353  A    between atoms: _880  and  _881
REMARK  354  A    between atoms: _886  and  _888
REMARK  355  A    between atoms: _888  and  _889
REMARK  356  A    between atoms: _888  and  _891
REMARK  357  A    between atoms: _891  and  _892
REMARK  358  A    between atoms: _895  and  _897
REMARK  359  A    between atoms: _897  and  _898
REMARK  360  A    between atoms: _897  and  _900
REMARK  361  A    between atoms: _900  and  _901
REMARK  362  A    between atoms: _903  and  _905
REMARK  363  A    between atoms: _905  and  _906
REMARK  364  A    between atoms: _905  and  _908
REMARK  365  A    between atoms: _908  and  _909
REMARK  366  A    between atoms: _911  and  _913
REMARK  367  A    between atoms: _913  and  _914
REMARK  368  A    between atoms: _913  and  _916
REMARK  369  A    between atoms: _916  and  _917
REMARK  370  A    between atoms: _923  and  _925
REMARK  371  A    between atoms: _925  and  _926
REMARK  372  A    between atoms: _925  and  _928
REMARK  373  A    between atoms: _928  and  _929
REMARK  374  A    between atoms: _929  and  _930
REMARK  375  A    between atoms: _930  and  _931
REMARK  376  A    between atoms: _940  and  _942
REMARK  377  A    between atoms: _942  and  _943
REMARK  378  A    between atoms: _942  and  _945
REMARK  379  A    between atoms: _945  and  _946
REMARK  380  A    between atoms: _946  and  _947
REMARK  381  A    between atoms: _947  and  _948
REMARK  382  A    between atoms: _957  and  _959
REMARK  383  A    between atoms: _959  and  _960
REMARK  384  A    between atoms: _962  and  _964
REMARK  385  A    between atoms: _964  and  _965
REMARK  386  A    between atoms: _964  and  _967
REMARK  387  A    between atoms: _967  and  _968
REMARK  388  A    between atoms: _974  and  _975
REMARK  389  A    between atoms: _980  and  _982
REMARK  390  A    between atoms: _982  and  _983
REMARK  391  A    between atoms: _982  and  _985
REMARK  392  A    between atoms: _985  and  _986
REMARK  393  A    between atoms: _996  and  _998
REMARK  394  A    between atoms: _998  and  _999
REMARK  395  A    between atoms: _998  and  _1001
REMARK  396  A    between atoms: _1001  and  _1002
REMARK  397  A    between atoms: _1002  and  _1003
REMARK  398  A    between atoms: _1003  and  _1004
REMARK  399  A    between atoms: _1013  and  _1015
REMARK  400  A    between atoms: _1015  and  _1016
REMARK  401  A    between atoms: _1015  and  _1018
REMARK  402  A    between atoms: _1018  and  _1019
REMARK  403  A    between atoms: _1021  and  _1023
REMARK  404  A    between atoms: _1023  and  _1024
REMARK  405  A    between atoms: _1027  and  _1029
REMARK  406  A    between atoms: _1029  and  _1030
REMARK  407  A    between atoms: _1029  and  _1032
REMARK  408  A    between atoms: _1032  and  _1033
REMARK  409  A    between atoms: _1036  and  _1038
REMARK  410  A    between atoms: _1038  and  _1039
REMARK  411  A    between atoms: _1038  and  _1041
REMARK  412  A    between atoms: _1041  and  _1042
REMARK  413  A    between atoms: _1042  and  _1043
REMARK  414  A    between atoms: _1043  and  _1044
REMARK  415  A    between atoms: _1053  and  _1055
REMARK  416  A    between atoms: _1055  and  _1056
REMARK  417  A    between atoms: _1055  and  _1058
REMARK  418  A    between atoms: _1061  and  _1063
REMARK  419  A    between atoms: _1063  and  _1064
REMARK  420  A    between atoms: _1066  and  _1068
REMARK  421  A    between atoms: _1068  and  _1069
REMARK  422  A    between atoms: _1068  and  _1071
REMARK  423  A    between atoms: _1071  and  _1072
REMARK                            x       y       z     vdW  Elec       q    Type
REMARK                         _______ _______ _______ _____ _____    ______ ____
ROOT
ATOM      1  O   HOH     1      19.297  40.093  45.674  0.00  0.00    +0.000 OA
ENDROOT
TORSDOF 0
REMARK  Name = ../refined-set-2016/1fo0/1fo0_pocket.pdb
REMARK  423 active torsions:
REMARK  status: ('A' for Active; 'I' for Inactive)
REMARK    1  A    between atoms: _1  and  _3
REMARK    2  A    between atoms: _3  and  _4
REMARK    3  A    between atoms: _3  and  _6
REMARK    4  A    between atoms: _6  and  _7
REMARK    5  A    between atoms: _10  and  _12
REMARK    6  A    between atoms: _12  and  _13
REMARK    7  A    between atoms: _12  and  _15
REMARK    8  A    between atoms: _15  and  _16
REMARK    9  A    between atoms: _16  and  _17
REMARK   10  A    between atoms: _17  and  _18
REMARK   11  A    between atoms: _27  and  _29
REMARK   12  A    between atoms: _29  and  _30
REMARK   13  A    between atoms: _29  and  _32
REMARK   14  A    between atoms: _32  and  _33
REMARK   15  A    between atoms: _38  and  _39
REMARK   16  A    between atoms: _41  and  _43
REMARK   17  A    between atoms: _43  and  _44
REMARK   18  A    between atoms: _43  and  _46
REMARK   19  A    between atoms: _46  and  _47
REMARK   20  A    between atoms: _53  and  _55
REMARK   21  A    between atoms: _55  and  _56
REMARK   22  A    between atoms: _55  and  _58
REMARK   23  A    between atoms: _61  and  _63
REMARK   24  A    between atoms: _63  and  _64
REMARK   25  A    between atoms: _63  and  _66
REMARK   26  A    between atoms: _66  and  _67
REMARK   27  A    between atoms: _70  and  _72
REMARK   28  A    between atoms: _72  and  _73
REMARK   29  A    between atoms: _72  and  _75
REMARK   30  A    between atoms: _75  and  _76
REMARK   31  A    between atoms: _81  and  _82
REMARK   32  A    between atoms: _84  and  _86
REMARK   33  A    between atoms: _86  and  _87
REMARK   34  A    between atoms: _86  and  _89
REMARK   35  A    between atoms: _89  and  _90
REMARK   36  A    between atoms: _90  and  _91
REMARK   37  A    between atoms: _93  and  _95
REMARK   38  A    between atoms: _95  and  _96
REMARK   39  A    between atoms: _95  and  _98
REMARK   40  A    between atoms: _98  and  _99
REMARK   41  A    between atoms: _99  and  _100
REMARK   42  A    between atoms: _103  and  _105
REMARK   43  A    between atoms: _105  and  _106
REMARK   44  A    between atoms: _105  and  _108
REMARK   45  A    between atoms: _111  and  _113
REMARK   46  A    between atoms: _113  and  _114
REMARK   47  A    between atoms: _116  and  _118
REMARK   48  A    between atoms: _118  and  _119
REMARK   49  A    between atoms: _118  and  _121
REMARK   50  A    between atoms: _121  and  _122
REMARK   51  A    between atoms: _128  and  _130
REMARK   52  A    between atoms: _130  and  _131
REMARK   53  A    between atoms: _130  and  _133
REMARK   54  A    between atoms: _136  and  _138
REMARK   55  A    between atoms: _138  and  _139
REMARK   56  A    between atoms: _138  and  _141
REMARK   57  A    between atoms: _141  and  _142
REMARK   58  A    between atoms: _148  and  _150
REMARK   59  A    between atoms: _150  and  _151
REMARK   60  A    between atoms: _150  and  _153
REMARK   61  A    between atoms: _153  and  _154
REMARK   62  A    between atoms: _159  and  _160
REMARK   63  A    between atoms: _162  and  _164
REMARK   64  A    between atoms: _164  and  _165
REMARK   65  A    between atoms: _164  and  _167
REMARK   66  A    between atoms: _167  and  _168
REMARK   67  A    between atoms: _168  and  _169
REMARK   68  A    between atoms: _171  and  _173
REMARK   69  A    between atoms: _173  and  _174
REMARK   70  A    between atoms: _173  and  _176
REMARK   71  A    between atoms: _176  and  _177
REMARK   72  A    between atoms: _177  and  _178
REMARK   73  A    between atoms: _181  and  _183
REMARK   74  A    between atoms: _183  and  _184
REMARK   75  A    between atoms: _183  and  _186
REMARK   76  A    between atoms: _186  and  _187
REMARK   77  A    between atoms: _192  and  _193
REMARK   78  A    between atoms: _195  and  _197
REMARK   79  A    between atoms: _197  and  _198
REMARK   80  A    between atoms: _197  and  _200
REMARK   81  A    between atoms: _200  and  _201
REMARK   82  A    between atoms: _201  and  _202
REMARK   83  A    between atoms: _202  and  _203
REMARK   84  A    between atoms: _212  and  _214
REMARK   85  A    between atoms: _214  and  _215
REMARK   86  A    between atoms: _214  and  _217
REMARK   87  A    between atoms: _217  and  _218
REMARK   88  A    between atoms: _218  and  _219
REMARK   89  A    between atoms: _222  and  _224
REMARK   90  A    between atoms: _224  and  _225
REMARK   91  A    between atoms: _224  and  _227
REMARK   92  A    between atoms: _227  and  _228
REMARK   93  A    between atoms: _228  and  _229
REMARK   94  A    between atoms: _234  and  _236
REMARK   95  A    between atoms: _236  and  _237
REMARK   96  A    between atoms: _236  and  _239
REMARK   97  A    between atoms: _239  and  _240
REMARK   98  A    between atoms: _240  and  _241
REMARK   99  A    between atoms: _241  and  _242
REMARK  100  A    between atoms: _242  and  _243
REMARK  101  A    between atoms: _247  and  _249
REMARK  102  A    between atoms: _249  and  _250
REMARK  103  A    between atoms: _253  and  _255
REMARK  104  A    between atoms: _255  and  _256
REMARK  105  A    between atoms: _255  and  _258
REMARK  106  A    between atoms: _258  and  _259
REMARK  107  A    between atoms: _259  and  _260
REMARK  108  A    between atoms: _260  and  _261
REMARK  109  A    between atoms: _261  and  _262
REMARK  110  A    between atoms: _266  and  _268
REMARK  111  A    between atoms: _268  and  _269
REMARK  112  A    between atoms: _271  and  _273
REMARK  113  A    between atoms: _273  and  _274
REMARK  114  A    between atoms: _273  and  _276
REMARK  115  A    between atoms: _276  and  _277
REMARK  116  A    between atoms: _282  and  _284
REMARK  117  A    between atoms: _284  and  _285
REMARK  118  A    between atoms: _284  and  _287
REMARK  119  A    between atoms: _287  and  _288
REMARK  120  A    between atoms: _288  and  _289
REMARK  121  A    between atoms: _292  and  _294
REMARK  122  A    between atoms: _294  and  _295
REMARK  123  A    between atoms: _294  and  _297
REMARK  124  A    between atoms: _297  and  _298
REMARK  125  A    between atoms: _298  and  _299
REMARK  126  A    between atoms: _304  and  _306
REMARK  127  A    between atoms: _306  and  _307
REMARK  128  A    between atoms: _306  and  _309
REMARK  129  A    between atoms: _309  and  _310
REMARK  130  A    between atoms: _312  and  _314
REMARK  131  A    between atoms: _314  and  _315
REMARK  132  A    between atoms: _314  and  _317
REMARK  133  A    between atoms: _317  and  _318
REMARK  134  A    between atoms: _324  and  _326
REMARK  135  A    between atoms: _326  and  _327
REMARK  136  A    between atoms: _326  and  _329
REMARK  137  A    between atoms: _329  and  _330
REMARK  138  A    between atoms: _330  and  _331
REMARK  139  A    between atoms: _331  and  _332
REMARK  140  A    between atoms: _341  and  _343
REMARK  141  A    between atoms: _343  and  _344
REMARK  142  A    between atoms: _343  and  _346
REMARK  143  A    between atoms: _349  and  _351
REMARK  144  A    between atoms: _351  and  _352
REMARK  145  A    between atoms: _351  and  _354
REMARK  146  A    between atoms: _354  and  _355
REMARK  147  A    between atoms: _358  and  _360
REMARK  148  A    between atoms: _360  and  _361
REMARK  149  A    between atoms: _360  and  _363
REMARK  150  A    between atoms: _363  and  _364
REMARK  151  A    between atoms: _367  and  _369
REMARK  152  A    between atoms: _369  and  _370
REMARK  153  A    between atoms: _369  and  _372
REMARK  154  A    between atoms: _372  and  _373
REMARK  155  A    between atoms: _373  and  _374
REMARK  156  A    between atoms: _374  and  _375
REMARK  157  A    between atoms: _384  and  _386
REMARK  158  A    between atoms: _386  and  _387
REMARK  159  A    between atoms: _386  and  _389
REMARK  160  A    between atoms: _389  and  _390
REMARK  161  A    between atoms: _393  and  _395
REMARK  162  A    between atoms: _395  and  _396
REMARK  163  A    between atoms: _395  and  _398
REMARK  164  A    between atoms: _398  and  _399
REMARK  165  A    between atoms: _402  and  _404
REMARK  166  A    between atoms: _404  and  _405
REMARK  167  A    between atoms: _404  and  _407
REMARK  168  A    between atoms: _407  and  _408
REMARK  169  A    between atoms: _411  and  _413
REMARK  170  A    between atoms: _413  and  _414
REMARK  171  A    between atoms: _413  and  _416
REMARK  172  A    between atoms: _416  and  _417
REMARK  173  A    between atoms: _422  and  _423
REMARK  174  A    between atoms: _425  and  _427
REMARK  175  A    between atoms: _427  and  _428
REMARK  176  A    between atoms: _427  and  _430
REMARK  177  A    between atoms: _430  and  _431
REMARK  178  A    between atoms: _436  and  _437
REMARK  179  A    between atoms: _439  and  _441
REMARK  180  A    between atoms: _441  and  _442
REMARK  181  A    between atoms: _441  and  _444
REMARK  182  A    between atoms: _444  and  _445
REMARK  183  A    between atoms: _448  and  _450
REMARK  184  A    between atoms: _450  and  _451
REMARK  185  A    between atoms: _450  and  _453
REMARK  186  A    between atoms: _456  and  _458
REMARK  187  A    between atoms: _458  and  _459
REMARK  188  A    between atoms: _458  and  _461
REMARK  189  A    between atoms: _461  and  _462
REMARK  190  A    between atoms: _465  and  _467
REMARK  191  A    between atoms: _467  and  _468
REMARK  192  A    between atoms: _467  and  _470
REMARK  193  A    between atoms: _470  and  _471
REMARK  194  A    between atoms: _473  and  _475
REMARK  195  A    between atoms: _475  and  _476
REMARK  196  A    between atoms: _478  and  _480
REMARK  197  A    between atoms: _480  and  _481
REMARK  198  A    between atoms: _480  and  _483
REMARK  199  A    between atoms: _483  and  _484
REMARK  200  A    between atoms: _489  and  _490
REMARK  201  A    between atoms: _492  and  _494
REMARK  202  A    between atoms: _494  and  _495
REMARK  203  A    between atoms: _494  and  _497
REMARK  204  A    between atoms: _497  and  _498
REMARK  205  A    between atoms: _498  and  _499
REMARK  206  A    between atoms: _504  and  _506
REMARK  207  A    between atoms: _506  and  _507
REMARK  208  A    between atoms: _506  and  _509
REMARK  209  A    between atoms: _509  and  _510
REMARK  210  A    between atoms: _510  and  _511
REMARK  211  A    between atoms: _516  and  _518
REMARK  212  A    between atoms: _518  and  _519
REMARK  213  A    between atoms: _518  and  _521
REMARK  214  A    between atoms: _521  and  _522
REMARK  215  A    between atoms: _527  and  _528
REMARK  216  A    between atoms: _530  and  _532
REMARK  217  A    between atoms: _532  and  _533
REMARK  218  A    between atoms: _532  and  _535
REMARK  219  A    between atoms: _535  and  _536
REMARK  220  A    between atoms: _541  and  _542
REMARK  221  A    between atoms: _544  and  _546
REMARK  222  A    between atoms: _546  and  _547
REMARK  223  A    between atoms: _546  and  _549
REMARK  224  A    between atoms: _549  and  _550
REMARK  225  A    between atoms: _555  and  _556
REMARK  226  A    between atoms: _558  and  _560
REMARK  227  A    between atoms: _560  and  _561
REMARK  228  A    between atoms: _560  and  _563
REMARK  229  A    between atoms: _563  and  _564
REMARK  230  A    between atoms: _567  and  _569
REMARK  231  A    between atoms: _569  and  _570
REMARK  232  A    between atoms: _569  and  _572
REMARK  233  A    between atoms: _572  and  _573
REMARK  234  A    between atoms: _583  and  _585
REMARK  235  A    between atoms: _585  and  _586
REMARK  236  A    between atoms: _589  and  _591
REMARK  237  A    between atoms: _591  and  _592
REMARK  238  A    between atoms: _595  and  _597
REMARK  239  A    between atoms: _597  and  _598
REMARK  240  A    between atoms: _597  and  _600
REMARK  241  A    between atoms: _600  and  _601
REMARK  242  A    between atoms: _604  and  _606
REMARK  243  A    between atoms: _606  and  _607
REMARK  244  A    between atoms: _606  and  _609
REMARK  245  A    between atoms: _609  and  _610
REMARK  246  A    between atoms: _613  and  _615
REMARK  247  A    between atoms: _615  and  _616
REMARK  248  A    between atoms: _615  and  _618
REMARK  249  A    between atoms: _618  and  _619
REMARK  250  A    between atoms: _622  and  _624
REMARK  251  A    between atoms: _624  and  _625
REMARK  252  A    between atoms: _624  and  _627
REMARK  253  A    between atoms: _627  and  _628
REMARK  254  A    between atoms: _628  and  _629
REMARK  255  A    between atoms: _629  and  _630
REMARK  256  A    between atoms: _630  and  _631
REMARK  257  A    between atoms: _635  and  _637
REMARK  258  A    between atoms: _637  and  _638
REMARK  259  A    between atoms: _637  and  _640
REMARK  260  A    between atoms: _640  and  _641
REMARK  261  A    between atoms: _646  and  _648
REMARK  262  A    between atoms: _648  and  _649
REMARK  263  A    between atoms: _648  and  _651
REMARK  264  A    between atoms: _651  and  _652
REMARK  265  A    between atoms: _652  and  _653
REMARK  266  A    between atoms: _653  and  _654
REMARK  267  A    between atoms: _654  and  _655
REMARK  268  A    between atoms: _659  and  _661
REMARK  269  A    between atoms: _661  and  _662
REMARK  270  A    between atoms: _661  and  _664
REMARK  271  A    between atoms: _664  and  _665
REMARK  272  A    between atoms: _675  and  _677
REMARK  273  A    between atoms: _677  and  _678
REMARK  274  A    between atoms: _681  and  _683
REMARK  275  A    between atoms: _683  and  _684
REMARK  276  A    between atoms: _686  and  _688
REMARK  277  A    between atoms: _688  and  _689
REMARK  278  A    between atoms: _688  and  _691
REMARK  279  A    between atoms: _691  and  _692
REMARK  280  A    between atoms: _692  and  _693
REMARK  281  A    between atoms: _696  and  _698
REMARK  282  A    between atoms: _698  and  _699
REMARK  283  A    between atoms: _702  and  _704
REMARK  284  A    between atoms: _704  and  _705
REMARK  285  A    between atoms: _704  and  _707
REMARK  286  A    between atoms: _707  and  _708
REMARK  287  A    between atoms: _708  and  _709
REMARK  288  A    between atoms: _712  and  _714
REMARK  289  A    between atoms: _714  and  _715
REMARK  290  A    between atoms: _714  and  _717
REMARK  291  A    between atoms: _717  and  _718
REMARK  292  A    between atoms: _718  and  _719
REMARK  293  A    between atoms: _719  and  _720
REMARK  294  A    between atoms: _729  and  _731
REMARK  295  A    between atoms: _731  and  _732
REMARK  296  A    between atoms: _731  and  _734
REMARK  297  A    between atoms: _734  and  _735
REMARK  298  A    between atoms: _738  and  _740
REMARK  299  A    between atoms: _740  and  _741
REMARK  300  A    between atoms: _740  and  _743
REMARK  301  A    between atoms: _743  and  _744
REMARK  302  A    between atoms: _744  and  _745
REMARK  303  A    between atoms: _745  and  _746
REMARK  304  A    between atoms: _755  and  _757
REMARK  305  A    between atoms: _757  and  _758
REMARK  306  A    between atoms: _761  and  _763
REMARK  307  A    between atoms: _763  and  _764
REMARK  308  A    between atoms: _763  and  _766
REMARK  309  A    between atoms: _766  and  _767
REMARK  310  A    between atoms: _772  and  _773
REMARK  311  A    between atoms: _775  and  _777
REMARK  312  A    between atoms: _777  and  _778
REMARK  313  A    between atoms: _777  and  _780
REMARK  314  A    between atoms: _780  and  _781
REMARK  315  A    between atoms: _784  and  _786
REMARK  316  A    between atoms: _786  and  _787
REMARK  317  A    between atoms: _786  and  _789
REMARK  318  A    between atoms: _789  and  _790
REMARK  319  A    between atoms: _793  and  _795
REMARK  320  A    between atoms: _795  and  _796
REMARK  321  A    between atoms: _795  and  _798
REMARK  322  A    between atoms: _800  and  _802
REMARK  323  A    between atoms: _802  and  _803
REMARK  324  A    between atoms: _802  and  _805
REMARK  325  A    between atoms: _808  and  _810
REMARK  326  A    between atoms: _810  and  _811
REMARK  327  A    between atoms: _810  and  _813
REMARK  328  A    between atoms: _813  and  _814
REMARK  329  A    between atoms: _814  and  _815
REMARK  330  A    between atoms: _818  and  _820
REMARK  331  A    between atoms: _820  and  _821
REMARK  332  A    between atoms: _820  and  _823
REMARK  333  A    between atoms: _823  and  _824
REMARK  334  A    between atoms: _834  and  _836
REMARK  335  A    between atoms: _836  and  _837
REMARK  336  A    between atoms: _836  and  _839
REMARK  337  A    between atoms: _839  and  _840
REMARK  338  A    between atoms: _843  and  _845
REMARK  339  A    between atoms: _845  and  _846
REMARK  340  A    between atoms: _845  and  _848
REMARK  341  A    between atoms: _848  and  _849
REMARK  342  A    between atoms: _849  and  _850
REMARK  343  A    between atoms: _850  and  _851
REMARK  344  A    between atoms: _860  and  _862
REMARK  345  A    between atoms: _862  and  _863
REMARK  346  A    between atoms: _862  and  _865
REMARK  347  A    between atoms: _865  and  _866
REMARK  348  A    between atoms: _871  and  _872
REMARK  349  A    between atoms: _874  and  _876
REMARK  350  A    between atoms: _876  and  _877
REMARK  351  A    between atoms: _876  and  _879
REMARK  352  A    between atoms: _879  and  _880
REMARK  353  A    between atoms: _880  and  _881
REMARK  354  A    between atoms: _886  and  _888
REMARK  355  A    between atoms: _888  and  _889
REMARK  356  A    between atoms: _888  and  _891
REMARK  357  A    between atoms: _891  and  _892
REMARK  358  A    between atoms: _895  and  _897
REMARK  359  A    between atoms: _897  and  _898
REMARK  360  A    between atoms: _897  and  _900
REMARK  361  A    between atoms: _900  and  _901
REMARK  362  A    between atoms: _903  and  _905
REMARK  363  A    between atoms: _905  and  _906
REMARK  364  A    between atoms: _905  and  _908
REMARK  365  A    between atoms: _908  and  _909
REMARK  366  A    between atoms: _911  and  _913
REMARK  367  A    between atoms: _913  and  _914
REMARK  368  A    between atoms: _913  and  _916
REMARK  369  A    between atoms: _916  and  _917
REMARK  370  A    between atoms: _923  and  _925
REMARK  371  A    between atoms: _925  and  _926
REMARK  372  A    between atoms: _925  and  _928
REMARK  373  A    between atoms: _928  and  _929
REMARK  374  A    between atoms: _929  and  _930
REMARK  375  A    between atoms: _930  and  _931
REMARK  376  A    between atoms: _940  and  _942
REMARK  377  A    between atoms: _942  and  _943
REMARK  378  A    between atoms: _942  and  _945
REMARK  379  A    between atoms: _945  and  _946
REMARK  380  A    between atoms: _946  and  _947
REMARK  381  A    between atoms: _947  and  _948
REMARK  382  A    between atoms: _957  and  _959
REMARK  383  A    between atoms: _959  and  _960
REMARK  384  A    between atoms: _962  and  _964
REMARK  385  A    between atoms: _964  and  _965
REMARK  386  A    between atoms: _964  and  _967
REMARK  387  A    between atoms: _967  and  _968
REMARK  388  A    between atoms: _974  and  _975
REMARK  389  A    between atoms: _980  and  _982
REMARK  390  A    between atoms: _982  and  _983
REMARK  391  A    between atoms: _982  and  _985
REMARK  392  A    between atoms: _985  and  _986
REMARK  393  A    between atoms: _996  and  _998
REMARK  394  A    between atoms: _998  and  _999
REMARK  395  A    between atoms: _998  and  _1001
REMARK  396  A    between atoms: _1001  and  _1002
REMARK  397  A    between atoms: _1002  and  _1003
REMARK  398  A    between atoms: _1003  and  _1004
REMARK  399  A    between atoms: _1013  and  _1015
REMARK  400  A    between atoms: _1015  and  _1016
REMARK  401  A    between atoms: _1015  and  _1018
REMARK  402  A    between atoms: _1018  and  _1019
REMARK  403  A    between atoms: _1021  and  _1023
REMARK  404  A    between atoms: _1023  and  _1024
REMARK  405  A    between atoms: _1027  and  _1029
REMARK  406  A    between atoms: _1029  and  _1030
REMARK  407  A    between atoms: _1029  and  _1032
REMARK  408  A    between atoms: _1032  and  _1033
REMARK  409  A    between atoms: _1036  and  _1038
REMARK  410  A    between atoms: _1038  and  _1039
REMARK  411  A    between atoms: _1038  and  _1041
REMARK  412  A    between atoms: _1041  and  _1042
REMARK  413  A    between atoms: _1042  and  _1043
REMARK  414  A    between atoms: _1043  and  _1044
REMARK  415  A    between atoms: _1053  and  _1055
REMARK  416  A    between atoms: _1055  and  _1056
REMARK  417  A    between atoms: _1055  and  _1058
REMARK  418  A    between atoms: _1061  and  _1063
REMARK  419  A    between atoms: _1063  and  _1064
REMARK  420  A    between atoms: _1066  and  _1068
REMARK  421  A    between atoms: _1068  and  _1069
REMARK  422  A    between atoms: _1068  and  _1071
REMARK  423  A    between atoms: _1071  and  _1072
REMARK                            x       y       z     vdW  Elec       q    Type
REMARK                         _______ _______ _______ _____ _____    ______ ____
ROOT
ATOM      1  O   HOH     1      12.631  35.956  49.233  0.00  0.00    +0.000 OA
ENDROOT
TORSDOF 0
REMARK  Name = ../refined-set-2016/1fo0/1fo0_pocket.pdb
REMARK  423 active torsions:
REMARK  status: ('A' for Active; 'I' for Inactive)
REMARK    1  A    between atoms: _1  and  _3
REMARK    2  A    between atoms: _3  and  _4
REMARK    3  A    between atoms: _3  and  _6
REMARK    4  A    between atoms: _6  and  _7
REMARK    5  A    between atoms: _10  and  _12
REMARK    6  A    between atoms: _12  and  _13
REMARK    7  A    between atoms: _12  and  _15
REMARK    8  A    between atoms: _15  and  _16
REMARK    9  A    between atoms: _16  and  _17
REMARK   10  A    between atoms: _17  and  _18
REMARK   11  A    between atoms: _27  and  _29
REMARK   12  A    between atoms: _29  and  _30
REMARK   13  A    between atoms: _29  and  _32
REMARK   14  A    between atoms: _32  and  _33
REMARK   15  A    between atoms: _38  and  _39
REMARK   16  A    between atoms: _41  and  _43
REMARK   17  A    between atoms: _43  and  _44
REMARK   18  A    between atoms: _43  and  _46
REMARK   19  A    between atoms: _46  and  _47
REMARK   20  A    between atoms: _53  and  _55
REMARK   21  A    between atoms: _55  and  _56
REMARK   22  A    between atoms: _55  and  _58
REMARK   23  A    between atoms: _61  and  _63
REMARK   24  A    between atoms: _63  and  _64
REMARK   25  A    between atoms: _63  and  _66
REMARK   26  A    between atoms: _66  and  _67
REMARK   27  A    between atoms: _70  and  _72
REMARK   28  A    between atoms: _72  and  _73
REMARK   29  A    between atoms: _72  and  _75
REMARK   30  A    between atoms: _75  and  _76
REMARK   31  A    between atoms: _81  and  _82
REMARK   32  A    between atoms: _84  and  _86
REMARK   33  A    between atoms: _86  and  _87
REMARK   34  A    between atoms: _86  and  _89
REMARK   35  A    between atoms: _89  and  _90
REMARK   36  A    between atoms: _90  and  _91
REMARK   37  A    between atoms: _93  and  _95
REMARK   38  A    between atoms: _95  and  _96
REMARK   39  A    between atoms: _95  and  _98
REMARK   40  A    between atoms: _98  and  _99
REMARK   41  A    between atoms: _99  and  _100
REMARK   42  A    between atoms: _103  and  _105
REMARK   43  A    between atoms: _105  and  _106
REMARK   44  A    between atoms: _105  and  _108
REMARK   45  A    between atoms: _111  and  _113
REMARK   46  A    between atoms: _113  and  _114
REMARK   47  A    between atoms: _116  and  _118
REMARK   48  A    between atoms: _118  and  _119
REMARK   49  A    between atoms: _118  and  _121
REMARK   50  A    between atoms: _121  and  _122
REMARK   51  A    between atoms: _128  and  _130
REMARK   52  A    between atoms: _130  and  _131
REMARK   53  A    between atoms: _130  and  _133
REMARK   54  A    between atoms: _136  and  _138
REMARK   55  A    between atoms: _138  and  _139
REMARK   56  A    between atoms: _138  and  _141
REMARK   57  A    between atoms: _141  and  _142
REMARK   58  A    between atoms: _148  and  _150
REMARK   59  A    between atoms: _150  and  _151
REMARK   60  A    between atoms: _150  and  _153
REMARK   61  A    between atoms: _153  and  _154
REMARK   62  A    between atoms: _159  and  _160
REMARK   63  A    between atoms: _162  and  _164
REMARK   64  A    between atoms: _164  and  _165
REMARK   65  A    between atoms: _164  and  _167
REMARK   66  A    between atoms: _167  and  _168
REMARK   67  A    between atoms: _168  and  _169
REMARK   68  A    between atoms: _171  and  _173
REMARK   69  A    between atoms: _173  and  _174
REMARK   70  A    between atoms: _173  and  _176
REMARK   71  A    between atoms: _176  and  _177
REMARK   72  A    between atoms: _177  and  _178
REMARK   73  A    between atoms: _181  and  _183
REMARK   74  A    between atoms: _183  and  _184
REMARK   75  A    between atoms: _183  and  _186
REMARK   76  A    between atoms: _186  and  _187
REMARK   77  A    between atoms: _192  and  _193
REMARK   78  A    between atoms: _195  and  _197
REMARK   79  A    between atoms: _197  and  _198
REMARK   80  A    between atoms: _197  and  _200
REMARK   81  A    between atoms: _200  and  _201
REMARK   82  A    between atoms: _201  and  _202
REMARK   83  A    between atoms: _202  and  _203
REMARK   84  A    between atoms: _212  and  _214
REMARK   85  A    between atoms: _214  and  _215
REMARK   86  A    between atoms: _214  and  _217
REMARK   87  A    between atoms: _217  and  _218
REMARK   88  A    between atoms: _218  and  _219
REMARK   89  A    between atoms: _222  and  _224
REMARK   90  A    between atoms: _224  and  _225
REMARK   91  A    between atoms: _224  and  _227
REMARK   92  A    between atoms: _227  and  _228
REMARK   93  A    between atoms: _228  and  _229
REMARK   94  A    between atoms: _234  and  _236
REMARK   95  A    between atoms: _236  and  _237
REMARK   96  A    between atoms: _236  and  _239
REMARK   97  A    between atoms: _239  and  _240
REMARK   98  A    between atoms: _240  and  _241
REMARK   99  A    between atoms: _241  and  _242
REMARK  100  A    between atoms: _242  and  _243
REMARK  101  A    between atoms: _247  and  _249
REMARK  102  A    between atoms: _249  and  _250
REMARK  103  A    between atoms: _253  and  _255
REMARK  104  A    between atoms: _255  and  _256
REMARK  105  A    between atoms: _255  and  _258
REMARK  106  A    between atoms: _258  and  _259
REMARK  107  A    between atoms: _259  and  _260
REMARK  108  A    between atoms: _260  and  _261
REMARK  109  A    between atoms: _261  and  _262
REMARK  110  A    between atoms: _266  and  _268
REMARK  111  A    between atoms: _268  and  _269
REMARK  112  A    between atoms: _271  and  _273
REMARK  113  A    between atoms: _273  and  _274
REMARK  114  A    between atoms: _273  and  _276
REMARK  115  A    between atoms: _276  and  _277
REMARK  116  A    between atoms: _282  and  _284
REMARK  117  A    between atoms: _284  and  _285
REMARK  118  A    between atoms: _284  and  _287
REMARK  119  A    between atoms: _287  and  _288
REMARK  120  A    between atoms: _288  and  _289
REMARK  121  A    between atoms: _292  and  _294
REMARK  122  A    between atoms: _294  and  _295
REMARK  123  A    between atoms: _294  and  _297
REMARK  124  A    between atoms: _297  and  _298
REMARK  125  A    between atoms: _298  and  _299
REMARK  126  A    between atoms: _304  and  _306
REMARK  127  A    between atoms: _306  and  _307
REMARK  128  A    between atoms: _306  and  _309
REMARK  129  A    between atoms: _309  and  _310
REMARK  130  A    between atoms: _312  and  _314
REMARK  131  A    between atoms: _314  and  _315
REMARK  132  A    between atoms: _314  and  _317
REMARK  133  A    between atoms: _317  and  _318
REMARK  134  A    between atoms: _324  and  _326
REMARK  135  A    between atoms: _326  and  _327
REMARK  136  A    between atoms: _326  and  _329
REMARK  137  A    between atoms: _329  and  _330
REMARK  138  A    between atoms: _330  and  _331
REMARK  139  A    between atoms: _331  and  _332
REMARK  140  A    between atoms: _341  and  _343
REMARK  141  A    between atoms: _343  and  _344
REMARK  142  A    between atoms: _343  and  _346
REMARK  143  A    between atoms: _349  and  _351
REMARK  144  A    between atoms: _351  and  _352
REMARK  145  A    between atoms: _351  and  _354
REMARK  146  A    between atoms: _354  and  _355
REMARK  147  A    between atoms: _358  and  _360
REMARK  148  A    between atoms: _360  and  _361
REMARK  149  A    between atoms: _360  and  _363
REMARK  150  A    between atoms: _363  and  _364
REMARK  151  A    between atoms: _367  and  _369
REMARK  152  A    between atoms: _369  and  _370
REMARK  153  A    between atoms: _369  and  _372
REMARK  154  A    between atoms: _372  and  _373
REMARK  155  A    between atoms: _373  and  _374
REMARK  156  A    between atoms: _374  and  _375
REMARK  157  A    between atoms: _384  and  _386
REMARK  158  A    between atoms: _386  and  _387
REMARK  159  A    between atoms: _386  and  _389
REMARK  160  A    between atoms: _389  and  _390
REMARK  161  A    between atoms: _393  and  _395
REMARK  162  A    between atoms: _395  and  _396
REMARK  163  A    between atoms: _395  and  _398
REMARK  164  A    between atoms: _398  and  _399
REMARK  165  A    between atoms: _402  and  _404
REMARK  166  A    between atoms: _404  and  _405
REMARK  167  A    between atoms: _404  and  _407
REMARK  168  A    between atoms: _407  and  _408
REMARK  169  A    between atoms: _411  and  _413
REMARK  170  A    between atoms: _413  and  _414
REMARK  171  A    between atoms: _413  and  _416
REMARK  172  A    between atoms: _416  and  _417
REMARK  173  A    between atoms: _422  and  _423
REMARK  174  A    between atoms: _425  and  _427
REMARK  175  A    between atoms: _427  and  _428
REMARK  176  A    between atoms: _427  and  _430
REMARK  177  A    between atoms: _430  and  _431
REMARK  178  A    between atoms: _436  and  _437
REMARK  179  A    between atoms: _439  and  _441
REMARK  180  A    between atoms: _441  and  _442
REMARK  181  A    between atoms: _441  and  _444
REMARK  182  A    between atoms: _444  and  _445
REMARK  183  A    between atoms: _448  and  _450
REMARK  184  A    between atoms: _450  and  _451
REMARK  185  A    between atoms: _450  and  _453
REMARK  186  A    between atoms: _456  and  _458
REMARK  187  A    between atoms: _458  and  _459
REMARK  188  A    between atoms: _458  and  _461
REMARK  189  A    between atoms: _461  and  _462
REMARK  190  A    between atoms: _465  and  _467
REMARK  191  A    between atoms: _467  and  _468
REMARK  192  A    between atoms: _467  and  _470
REMARK  193  A    between atoms: _470  and  _471
REMARK  194  A    between atoms: _473  and  _475
REMARK  195  A    between atoms: _475  and  _476
REMARK  196  A    between atoms: _478  and  _480
REMARK  197  A    between atoms: _480  and  _481
REMARK  198  A    between atoms: _480  and  _483
REMARK  199  A    between atoms: _483  and  _484
REMARK  200  A    between atoms: _489  and  _490
REMARK  201  A    between atoms: _492  and  _494
REMARK  202  A    between atoms: _494  and  _495
REMARK  203  A    between atoms: _494  and  _497
REMARK  204  A    between atoms: _497  and  _498
REMARK  205  A    between atoms: _498  and  _499
REMARK  206  A    between atoms: _504  and  _506
REMARK  207  A    between atoms: _506  and  _507
REMARK  208  A    between atoms: _506  and  _509
REMARK  209  A    between atoms: _509  and  _510
REMARK  210  A    between atoms: _510  and  _511
REMARK  211  A    between atoms: _516  and  _518
REMARK  212  A    between atoms: _518  and  _519
REMARK  213  A    between atoms: _518  and  _521
REMARK  214  A    between atoms: _521  and  _522
REMARK  215  A    between atoms: _527  and  _528
REMARK  216  A    between atoms: _530  and  _532
REMARK  217  A    between atoms: _532  and  _533
REMARK  218  A    between atoms: _532  and  _535
REMARK  219  A    between atoms: _535  and  _536
REMARK  220  A    between atoms: _541  and  _542
REMARK  221  A    between atoms: _544  and  _546
REMARK  222  A    between atoms: _546  and  _547
REMARK  223  A    between atoms: _546  and  _549
REMARK  224  A    between atoms: _549  and  _550
REMARK  225  A    between atoms: _555  and  _556
REMARK  226  A    between atoms: _558  and  _560
REMARK  227  A    between atoms: _560  and  _561
REMARK  228  A    between atoms: _560  and  _563
REMARK  229  A    between atoms: _563  and  _564
REMARK  230  A    between atoms: _567  and  _569
REMARK  231  A    between atoms: _569  and  _570
REMARK  232  A    between atoms: _569  and  _572
REMARK  233  A    between atoms: _572  and  _573
REMARK  234  A    between atoms: _583  and  _585
REMARK  235  A    between atoms: _585  and  _586
REMARK  236  A    between atoms: _589  and  _591
REMARK  237  A    between atoms: _591  and  _592
REMARK  238  A    between atoms: _595  and  _597
REMARK  239  A    between atoms: _597  and  _598
REMARK  240  A    between atoms: _597  and  _600
REMARK  241  A    between atoms: _600  and  _601
REMARK  242  A    between atoms: _604  and  _606
REMARK  243  A    between atoms: _606  and  _607
REMARK  244  A    between atoms: _606  and  _609
REMARK  245  A    between atoms: _609  and  _610
REMARK  246  A    between atoms: _613  and  _615
REMARK  247  A    between atoms: _615  and  _616
REMARK  248  A    between atoms: _615  and  _618
REMARK  249  A    between atoms: _618  and  _619
REMARK  250  A    between atoms: _622  and  _624
REMARK  251  A    between atoms: _624  and  _625
REMARK  252  A    between atoms: _624  and  _627
REMARK  253  A    between atoms: _627  and  _628
REMARK  254  A    between atoms: _628  and  _629
REMARK  255  A    between atoms: _629  and  _630
REMARK  256  A    between atoms: _630  and  _631
REMARK  257  A    between atoms: _635  and  _637
REMARK  258  A    between atoms: _637  and  _638
REMARK  259  A    between atoms: _637  and  _640
REMARK  260  A    between atoms: _640  and  _641
REMARK  261  A    between atoms: _646  and  _648
REMARK  262  A    between atoms: _648  and  _649
REMARK  263  A    between atoms: _648  and  _651
REMARK  264  A    between atoms: _651  and  _652
REMARK  265  A    between atoms: _652  and  _653
REMARK  266  A    between atoms: _653  and  _654
REMARK  267  A    between atoms: _654  and  _655
REMARK  268  A    between atoms: _659  and  _661
REMARK  269  A    between atoms: _661  and  _662
REMARK  270  A    between atoms: _661  and  _664
REMARK  271  A    between atoms: _664  and  _665
REMARK  272  A    between atoms: _675  and  _677
REMARK  273  A    between atoms: _677  and  _678
REMARK  274  A    between atoms: _681  and  _683
REMARK  275  A    between atoms: _683  and  _684
REMARK  276  A    between atoms: _686  and  _688
REMARK  277  A    between atoms: _688  and  _689
REMARK  278  A    between atoms: _688  and  _691
REMARK  279  A    between atoms: _691  and  _692
REMARK  280  A    between atoms: _692  and  _693
REMARK  281  A    between atoms: _696  and  _698
REMARK  282  A    between atoms: _698  and  _699
REMARK  283  A    between atoms: _702  and  _704
REMARK  284  A    between atoms: _704  and  _705
REMARK  285  A    between atoms: _704  and  _707
REMARK  286  A    between atoms: _707  and  _708
REMARK  287  A    between atoms: _708  and  _709
REMARK  288  A    between atoms: _712  and  _714
REMARK  289  A    between atoms: _714  and  _715
REMARK  290  A    between atoms: _714  and  _717
REMARK  291  A    between atoms: _717  and  _718
REMARK  292  A    between atoms: _718  and  _719
REMARK  293  A    between atoms: _719  and  _720
REMARK  294  A    between atoms: _729  and  _731
REMARK  295  A    between atoms: _731  and  _732
REMARK  296  A    between atoms: _731  and  _734
REMARK  297  A    between atoms: _734  and  _735
REMARK  298  A    between atoms: _738  and  _740
REMARK  299  A    between atoms: _740  and  _741
REMARK  300  A    between atoms: _740  and  _743
REMARK  301  A    between atoms: _743  and  _744
REMARK  302  A    between atoms: _744  and  _745
REMARK  303  A    between atoms: _745  and  _746
REMARK  304  A    between atoms: _755  and  _757
REMARK  305  A    between atoms: _757  and  _758
REMARK  306  A    between atoms: _761  and  _763
REMARK  307  A    between atoms: _763  and  _764
REMARK  308  A    between atoms: _763  and  _766
REMARK  309  A    between atoms: _766  and  _767
REMARK  310  A    between atoms: _772  and  _773
REMARK  311  A    between atoms: _775  and  _777
REMARK  312  A    between atoms: _777  and  _778
REMARK  313  A    between atoms: _777  and  _780
REMARK  314  A    between atoms: _780  and  _781
REMARK  315  A    between atoms: _784  and  _786
REMARK  316  A    between atoms: _786  and  _787
REMARK  317  A    between atoms: _786  and  _789
REMARK  318  A    between atoms: _789  and  _790
REMARK  319  A    between atoms: _793  and  _795
REMARK  320  A    between atoms: _795  and  _796
REMARK  321  A    between atoms: _795  and  _798
REMARK  322  A    between atoms: _800  and  _802
REMARK  323  A    between atoms: _802  and  _803
REMARK  324  A    between atoms: _802  and  _805
REMARK  325  A    between atoms: _808  and  _810
REMARK  326  A    between atoms: _810  and  _811
REMARK  327  A    between atoms: _810  and  _813
REMARK  328  A    between atoms: _813  and  _814
REMARK  329  A    between atoms: _814  and  _815
REMARK  330  A    between atoms: _818  and  _820
REMARK  331  A    between atoms: _820  and  _821
REMARK  332  A    between atoms: _820  and  _823
REMARK  333  A    between atoms: _823  and  _824
REMARK  334  A    between atoms: _834  and  _836
REMARK  335  A    between atoms: _836  and  _837
REMARK  336  A    between atoms: _836  and  _839
REMARK  337  A    between atoms: _839  and  _840
REMARK  338  A    between atoms: _843  and  _845
REMARK  339  A    between atoms: _845  and  _846
REMARK  340  A    between atoms: _845  and  _848
REMARK  341  A    between atoms: _848  and  _849
REMARK  342  A    between atoms: _849  and  _850
REMARK  343  A    between atoms: _850  and  _851
REMARK  344  A    between atoms: _860  and  _862
REMARK  345  A    between atoms: _862  and  _863
REMARK  346  A    between atoms: _862  and  _865
REMARK  347  A    between atoms: _865  and  _866
REMARK  348  A    between atoms: _871  and  _872
REMARK  349  A    between atoms: _874  and  _876
REMARK  350  A    between atoms: _876  and  _877
REMARK  351  A    between atoms: _876  and  _879
REMARK  352  A    between atoms: _879  and  _880
REMARK  353  A    between atoms: _880  and  _881
REMARK  354  A    between atoms: _886  and  _888
REMARK  355  A    between atoms: _888  and  _889
REMARK  356  A    between atoms: _888  and  _891
REMARK  357  A    between atoms: _891  and  _892
REMARK  358  A    between atoms: _895  and  _897
REMARK  359  A    between atoms: _897  and  _898
REMARK  360  A    between atoms: _897  and  _900
REMARK  361  A    between atoms: _900  and  _901
REMARK  362  A    between atoms: _903  and  _905
REMARK  363  A    between atoms: _905  and  _906
REMARK  364  A    between atoms: _905  and  _908
REMARK  365  A    between atoms: _908  and  _909
REMARK  366  A    between atoms: _911  and  _913
REMARK  367  A    between atoms: _913  and  _914
REMARK  368  A    between atoms: _913  and  _916
REMARK  369  A    between atoms: _916  and  _917
REMARK  370  A    between atoms: _923  and  _925
REMARK  371  A    between atoms: _925  and  _926
REMARK  372  A    between atoms: _925  and  _928
REMARK  373  A    between atoms: _928  and  _929
REMARK  374  A    between atoms: _929  and  _930
REMARK  375  A    between atoms: _930  and  _931
REMARK  376  A    between atoms: _940  and  _942
REMARK  377  A    between atoms: _942  and  _943
REMARK  378  A    between atoms: _942  and  _945
REMARK  379  A    between atoms: _945  and  _946
REMARK  380  A    between atoms: _946  and  _947
REMARK  381  A    between atoms: _947  and  _948
REMARK  382  A    between atoms: _957  and  _959
REMARK  383  A    between atoms: _959  and  _960
REMARK  384  A    between atoms: _962  and  _964
REMARK  385  A    between atoms: _964  and  _965
REMARK  386  A    between atoms: _964  and  _967
REMARK  387  A    between atoms: _967  and  _968
REMARK  388  A    between atoms: _974  and  _975
REMARK  389  A    between atoms: _980  and  _982
REMARK  390  A    between atoms: _982  and  _983
REMARK  391  A    between atoms: _982  and  _985
REMARK  392  A    between atoms: _985  and  _986
REMARK  393  A    between atoms: _996  and  _998
REMARK  394  A    between atoms: _998  and  _999
REMARK  395  A    between atoms: _998  and  _1001
REMARK  396  A    between atoms: _1001  and  _1002
REMARK  397  A    between atoms: _1002  and  _1003
REMARK  398  A    between atoms: _1003  and  _1004
REMARK  399  A    between atoms: _1013  and  _1015
REMARK  400  A    between atoms: _1015  and  _1016
REMARK  401  A    between atoms: _1015  and  _1018
REMARK  402  A    between atoms: _1018  and  _1019
REMARK  403  A    between atoms: _1021  and  _1023
REMARK  404  A    between atoms: _1023  and  _1024
REMARK  405  A    between atoms: _1027  and  _1029
REMARK  406  A    between atoms: _1029  and  _1030
REMARK  407  A    between atoms: _1029  and  _1032
REMARK  408  A    between atoms: _1032  and  _1033
REMARK  409  A    between atoms: _1036  and  _1038
REMARK  410  A    between atoms: _1038  and  _1039
REMARK  411  A    between atoms: _1038  and  _1041
REMARK  412  A    between atoms: _1041  and  _1042
REMARK  413  A    between atoms: _1042  and  _1043
REMARK  414  A    between atoms: _1043  and  _1044
REMARK  415  A    between atoms: _1053  and  _1055
REMARK  416  A    between atoms: _1055  and  _1056
REMARK  417  A    between atoms: _1055  and  _1058
REMARK  418  A    between atoms: _1061  and  _1063
REMARK  419  A    between atoms: _1063  and  _1064
REMARK  420  A    between atoms: _1066  and  _1068
REMARK  421  A    between atoms: _1068  and  _1069
REMARK  422  A    between atoms: _1068  and  _1071
REMARK  423  A    between atoms: _1071  and  _1072
REMARK                            x       y       z     vdW  Elec       q    Type
REMARK                         _______ _______ _______ _____ _____    ______ ____
ROOT
ATOM      1  O   HOH     1      12.981  30.708  47.989  0.00  0.00    +0.000 OA
ENDROOT
TORSDOF 0
REMARK  Name = ../refined-set-2016/1fo0/1fo0_pocket.pdb
REMARK  423 active torsions:
REMARK  status: ('A' for Active; 'I' for Inactive)
REMARK    1  A    between atoms: _1  and  _3
REMARK    2  A    between atoms: _3  and  _4
REMARK    3  A    between atoms: _3  and  _6
REMARK    4  A    between atoms: _6  and  _7
REMARK    5  A    between atoms: _10  and  _12
REMARK    6  A    between atoms: _12  and  _13
REMARK    7  A    between atoms: _12  and  _15
REMARK    8  A    between atoms: _15  and  _16
REMARK    9  A    between atoms: _16  and  _17
REMARK   10  A    between atoms: _17  and  _18
REMARK   11  A    between atoms: _27  and  _29
REMARK   12  A    between atoms: _29  and  _30
REMARK   13  A    between atoms: _29  and  _32
REMARK   14  A    between atoms: _32  and  _33
REMARK   15  A    between atoms: _38  and  _39
REMARK   16  A    between atoms: _41  and  _43
REMARK   17  A    between atoms: _43  and  _44
REMARK   18  A    between atoms: _43  and  _46
REMARK   19  A    between atoms: _46  and  _47
REMARK   20  A    between atoms: _53  and  _55
REMARK   21  A    between atoms: _55  and  _56
REMARK   22  A    between atoms: _55  and  _58
REMARK   23  A    between atoms: _61  and  _63
REMARK   24  A    between atoms: _63  and  _64
REMARK   25  A    between atoms: _63  and  _66
REMARK   26  A    between atoms: _66  and  _67
REMARK   27  A    between atoms: _70  and  _72
REMARK   28  A    between atoms: _72  and  _73
REMARK   29  A    between atoms: _72  and  _75
REMARK   30  A    between atoms: _75  and  _76
REMARK   31  A    between atoms: _81  and  _82
REMARK   32  A    between atoms: _84  and  _86
REMARK   33  A    between atoms: _86  and  _87
REMARK   34  A    between atoms: _86  and  _89
REMARK   35  A    between atoms: _89  and  _90
REMARK   36  A    between atoms: _90  and  _91
REMARK   37  A    between atoms: _93  and  _95
REMARK   38  A    between atoms: _95  and  _96
REMARK   39  A    between atoms: _95  and  _98
REMARK   40  A    between atoms: _98  and  _99
REMARK   41  A    between atoms: _99  and  _100
REMARK   42  A    between atoms: _103  and  _105
REMARK   43  A    between atoms: _105  and  _106
REMARK   44  A    between atoms: _105  and  _108
REMARK   45  A    between atoms: _111  and  _113
REMARK   46  A    between atoms: _113  and  _114
REMARK   47  A    between atoms: _116  and  _118
REMARK   48  A    between atoms: _118  and  _119
REMARK   49  A    between atoms: _118  and  _121
REMARK   50  A    between atoms: _121  and  _122
REMARK   51  A    between atoms: _128  and  _130
REMARK   52  A    between atoms: _130  and  _131
REMARK   53  A    between atoms: _130  and  _133
REMARK   54  A    between atoms: _136  and  _138
REMARK   55  A    between atoms: _138  and  _139
REMARK   56  A    between atoms: _138  and  _141
REMARK   57  A    between atoms: _141  and  _142
REMARK   58  A    between atoms: _148  and  _150
REMARK   59  A    between atoms: _150  and  _151
REMARK   60  A    between atoms: _150  and  _153
REMARK   61  A    between atoms: _153  and  _154
REMARK   62  A    between atoms: _159  and  _160
REMARK   63  A    between atoms: _162  and  _164
REMARK   64  A    between atoms: _164  and  _165
REMARK   65  A    between atoms: _164  and  _167
REMARK   66  A    between atoms: _167  and  _168
REMARK   67  A    between atoms: _168  and  _169
REMARK   68  A    between atoms: _171  and  _173
REMARK   69  A    between atoms: _173  and  _174
REMARK   70  A    between atoms: _173  and  _176
REMARK   71  A    between atoms: _176  and  _177
REMARK   72  A    between atoms: _177  and  _178
REMARK   73  A    between atoms: _181  and  _183
REMARK   74  A    between atoms: _183  and  _184
REMARK   75  A    between atoms: _183  and  _186
REMARK   76  A    between atoms: _186  and  _187
REMARK   77  A    between atoms: _192  and  _193
REMARK   78  A    between atoms: _195  and  _197
REMARK   79  A    between atoms: _197  and  _198
REMARK   80  A    between atoms: _197  and  _200
REMARK   81  A    between atoms: _200  and  _201
REMARK   82  A    between atoms: _201  and  _202
REMARK   83  A    between atoms: _202  and  _203
REMARK   84  A    between atoms: _212  and  _214
REMARK   85  A    between atoms: _214  and  _215
REMARK   86  A    between atoms: _214  and  _217
REMARK   87  A    between atoms: _217  and  _218
REMARK   88  A    between atoms: _218  and  _219
REMARK   89  A    between atoms: _222  and  _224
REMARK   90  A    between atoms: _224  and  _225
REMARK   91  A    between atoms: _224  and  _227
REMARK   92  A    between atoms: _227  and  _228
REMARK   93  A    between atoms: _228  and  _229
REMARK   94  A    between atoms: _234  and  _236
REMARK   95  A    between atoms: _236  and  _237
REMARK   96  A    between atoms: _236  and  _239
REMARK   97  A    between atoms: _239  and  _240
REMARK   98  A    between atoms: _240  and  _241
REMARK   99  A    between atoms: _241  and  _242
REMARK  100  A    between atoms: _242  and  _243
REMARK  101  A    between atoms: _247  and  _249
REMARK  102  A    between atoms: _249  and  _250
REMARK  103  A    between atoms: _253  and  _255
REMARK  104  A    between atoms: _255  and  _256
REMARK  105  A    between atoms: _255  and  _258
REMARK  106  A    between atoms: _258  and  _259
REMARK  107  A    between atoms: _259  and  _260
REMARK  108  A    between atoms: _260  and  _261
REMARK  109  A    between atoms: _261  and  _262
REMARK  110  A    between atoms: _266  and  _268
REMARK  111  A    between atoms: _268  and  _269
REMARK  112  A    between atoms: _271  and  _273
REMARK  113  A    between atoms: _273  and  _274
REMARK  114  A    between atoms: _273  and  _276
REMARK  115  A    between atoms: _276  and  _277
REMARK  116  A    between atoms: _282  and  _284
REMARK  117  A    between atoms: _284  and  _285
REMARK  118  A    between atoms: _284  and  _287
REMARK  119  A    between atoms: _287  and  _288
REMARK  120  A    between atoms: _288  and  _289
REMARK  121  A    between atoms: _292  and  _294
REMARK  122  A    between atoms: _294  and  _295
REMARK  123  A    between atoms: _294  and  _297
REMARK  124  A    between atoms: _297  and  _298
REMARK  125  A    between atoms: _298  and  _299
REMARK  126  A    between atoms: _304  and  _306
REMARK  127  A    between atoms: _306  and  _307
REMARK  128  A    between atoms: _306  and  _309
REMARK  129  A    between atoms: _309  and  _310
REMARK  130  A    between atoms: _312  and  _314
REMARK  131  A    between atoms: _314  and  _315
REMARK  132  A    between atoms: _314  and  _317
REMARK  133  A    between atoms: _317  and  _318
REMARK  134  A    between atoms: _324  and  _326
REMARK  135  A    between atoms: _326  and  _327
REMARK  136  A    between atoms: _326  and  _329
REMARK  137  A    between atoms: _329  and  _330
REMARK  138  A    between atoms: _330  and  _331
REMARK  139  A    between atoms: _331  and  _332
REMARK  140  A    between atoms: _341  and  _343
REMARK  141  A    between atoms: _343  and  _344
REMARK  142  A    between atoms: _343  and  _346
REMARK  143  A    between atoms: _349  and  _351
REMARK  144  A    between atoms: _351  and  _352
REMARK  145  A    between atoms: _351  and  _354
REMARK  146  A    between atoms: _354  and  _355
REMARK  147  A    between atoms: _358  and  _360
REMARK  148  A    between atoms: _360  and  _361
REMARK  149  A    between atoms: _360  and  _363
REMARK  150  A    between atoms: _363  and  _364
REMARK  151  A    between atoms: _367  and  _369
REMARK  152  A    between atoms: _369  and  _370
REMARK  153  A    between atoms: _369  and  _372
REMARK  154  A    between atoms: _372  and  _373
REMARK  155  A    between atoms: _373  and  _374
REMARK  156  A    between atoms: _374  and  _375
REMARK  157  A    between atoms: _384  and  _386
REMARK  158  A    between atoms: _386  and  _387
REMARK  159  A    between atoms: _386  and  _389
REMARK  160  A    between atoms: _389  and  _390
REMARK  161  A    between atoms: _393  and  _395
REMARK  162  A    between atoms: _395  and  _396
REMARK  163  A    between atoms: _395  and  _398
REMARK  164  A    between atoms: _398  and  _399
REMARK  165  A    between atoms: _402  and  _404
REMARK  166  A    between atoms: _404  and  _405
REMARK  167  A    between atoms: _404  and  _407
REMARK  168  A    between atoms: _407  and  _408
REMARK  169  A    between atoms: _411  and  _413
REMARK  170  A    between atoms: _413  and  _414
REMARK  171  A    between atoms: _413  and  _416
REMARK  172  A    between atoms: _416  and  _417
REMARK  173  A    between atoms: _422  and  _423
REMARK  174  A    between atoms: _425  and  _427
REMARK  175  A    between atoms: _427  and  _428
REMARK  176  A    between atoms: _427  and  _430
REMARK  177  A    between atoms: _430  and  _431
REMARK  178  A    between atoms: _436  and  _437
REMARK  179  A    between atoms: _439  and  _441
REMARK  180  A    between atoms: _441  and  _442
REMARK  181  A    between atoms: _441  and  _444
REMARK  182  A    between atoms: _444  and  _445
REMARK  183  A    between atoms: _448  and  _450
REMARK  184  A    between atoms: _450  and  _451
REMARK  185  A    between atoms: _450  and  _453
REMARK  186  A    between atoms: _456  and  _458
REMARK  187  A    between atoms: _458  and  _459
REMARK  188  A    between atoms: _458  and  _461
REMARK  189  A    between atoms: _461  and  _462
REMARK  190  A    between atoms: _465  and  _467
REMARK  191  A    between atoms: _467  and  _468
REMARK  192  A    between atoms: _467  and  _470
REMARK  193  A    between atoms: _470  and  _471
REMARK  194  A    between atoms: _473  and  _475
REMARK  195  A    between atoms: _475  and  _476
REMARK  196  A    between atoms: _478  and  _480
REMARK  197  A    between atoms: _480  and  _481
REMARK  198  A    between atoms: _480  and  _483
REMARK  199  A    between atoms: _483  and  _484
REMARK  200  A    between atoms: _489  and  _490
REMARK  201  A    between atoms: _492  and  _494
REMARK  202  A    between atoms: _494  and  _495
REMARK  203  A    between atoms: _494  and  _497
REMARK  204  A    between atoms: _497  and  _498
REMARK  205  A    between atoms: _498  and  _499
REMARK  206  A    between atoms: _504  and  _506
REMARK  207  A    between atoms: _506  and  _507
REMARK  208  A    between atoms: _506  and  _509
REMARK  209  A    between atoms: _509  and  _510
REMARK  210  A    between atoms: _510  and  _511
REMARK  211  A    between atoms: _516  and  _518
REMARK  212  A    between atoms: _518  and  _519
REMARK  213  A    between atoms: _518  and  _521
REMARK  214  A    between atoms: _521  and  _522
REMARK  215  A    between atoms: _527  and  _528
REMARK  216  A    between atoms: _530  and  _532
REMARK  217  A    between atoms: _532  and  _533
REMARK  218  A    between atoms: _532  and  _535
REMARK  219  A    between atoms: _535  and  _536
REMARK  220  A    between atoms: _541  and  _542
REMARK  221  A    between atoms: _544  and  _546
REMARK  222  A    between atoms: _546  and  _547
REMARK  223  A    between atoms: _546  and  _549
REMARK  224  A    between atoms: _549  and  _550
REMARK  225  A    between atoms: _555  and  _556
REMARK  226  A    between atoms: _558  and  _560
REMARK  227  A    between atoms: _560  and  _561
REMARK  228  A    between atoms: _560  and  _563
REMARK  229  A    between atoms: _563  and  _564
REMARK  230  A    between atoms: _567  and  _569
REMARK  231  A    between atoms: _569  and  _570
REMARK  232  A    between atoms: _569  and  _572
REMARK  233  A    between atoms: _572  and  _573
REMARK  234  A    between atoms: _583  and  _585
REMARK  235  A    between atoms: _585  and  _586
REMARK  236  A    between atoms: _589  and  _591
REMARK  237  A    between atoms: _591  and  _592
REMARK  238  A    between atoms: _595  and  _597
REMARK  239  A    between atoms: _597  and  _598
REMARK  240  A    between atoms: _597  and  _600
REMARK  241  A    between atoms: _600  and  _601
REMARK  242  A    between atoms: _604  and  _606
REMARK  243  A    between atoms: _606  and  _607
REMARK  244  A    between atoms: _606  and  _609
REMARK  245  A    between atoms: _609  and  _610
REMARK  246  A    between atoms: _613  and  _615
REMARK  247  A    between atoms: _615  and  _616
REMARK  248  A    between atoms: _615  and  _618
REMARK  249  A    between atoms: _618  and  _619
REMARK  250  A    between atoms: _622  and  _624
REMARK  251  A    between atoms: _624  and  _625
REMARK  252  A    between atoms: _624  and  _627
REMARK  253  A    between atoms: _627  and  _628
REMARK  254  A    between atoms: _628  and  _629
REMARK  255  A    between atoms: _629  and  _630
REMARK  256  A    between atoms: _630  and  _631
REMARK  257  A    between atoms: _635  and  _637
REMARK  258  A    between atoms: _637  and  _638
REMARK  259  A    between atoms: _637  and  _640
REMARK  260  A    between atoms: _640  and  _641
REMARK  261  A    between atoms: _646  and  _648
REMARK  262  A    between atoms: _648  and  _649
REMARK  263  A    between atoms: _648  and  _651
REMARK  264  A    between atoms: _651  and  _652
REMARK  265  A    between atoms: _652  and  _653
REMARK  266  A    between atoms: _653  and  _654
REMARK  267  A    between atoms: _654  and  _655
REMARK  268  A    between atoms: _659  and  _661
REMARK  269  A    between atoms: _661  and  _662
REMARK  270  A    between atoms: _661  and  _664
REMARK  271  A    between atoms: _664  and  _665
REMARK  272  A    between atoms: _675  and  _677
REMARK  273  A    between atoms: _677  and  _678
REMARK  274  A    between atoms: _681  and  _683
REMARK  275  A    between atoms: _683  and  _684
REMARK  276  A    between atoms: _686  and  _688
REMARK  277  A    between atoms: _688  and  _689
REMARK  278  A    between atoms: _688  and  _691
REMARK  279  A    between atoms: _691  and  _692
REMARK  280  A    between atoms: _692  and  _693
REMARK  281  A    between atoms: _696  and  _698
REMARK  282  A    between atoms: _698  and  _699
REMARK  283  A    between atoms: _702  and  _704
REMARK  284  A    between atoms: _704  and  _705
REMARK  285  A    between atoms: _704  and  _707
REMARK  286  A    between atoms: _707  and  _708
REMARK  287  A    between atoms: _708  and  _709
REMARK  288  A    between atoms: _712  and  _714
REMARK  289  A    between atoms: _714  and  _715
REMARK  290  A    between atoms: _714  and  _717
REMARK  291  A    between atoms: _717  and  _718
REMARK  292  A    between atoms: _718  and  _719
REMARK  293  A    between atoms: _719  and  _720
REMARK  294  A    between atoms: _729  and  _731
REMARK  295  A    between atoms: _731  and  _732
REMARK  296  A    between atoms: _731  and  _734
REMARK  297  A    between atoms: _734  and  _735
REMARK  298  A    between atoms: _738  and  _740
REMARK  299  A    between atoms: _740  and  _741
REMARK  300  A    between atoms: _740  and  _743
REMARK  301  A    between atoms: _743  and  _744
REMARK  302  A    between atoms: _744  and  _745
REMARK  303  A    between atoms: _745  and  _746
REMARK  304  A    between atoms: _755  and  _757
REMARK  305  A    between atoms: _757  and  _758
REMARK  306  A    between atoms: _761  and  _763
REMARK  307  A    between atoms: _763  and  _764
REMARK  308  A    between atoms: _763  and  _766
REMARK  309  A    between atoms: _766  and  _767
REMARK  310  A    between atoms: _772  and  _773
REMARK  311  A    between atoms: _775  and  _777
REMARK  312  A    between atoms: _777  and  _778
REMARK  313  A    between atoms: _777  and  _780
REMARK  314  A    between atoms: _780  and  _781
REMARK  315  A    between atoms: _784  and  _786
REMARK  316  A    between atoms: _786  and  _787
REMARK  317  A    between atoms: _786  and  _789
REMARK  318  A    between atoms: _789  and  _790
REMARK  319  A    between atoms: _793  and  _795
REMARK  320  A    between atoms: _795  and  _796
REMARK  321  A    between atoms: _795  and  _798
REMARK  322  A    between atoms: _800  and  _802
REMARK  323  A    between atoms: _802  and  _803
REMARK  324  A    between atoms: _802  and  _805
REMARK  325  A    between atoms: _808  and  _810
REMARK  326  A    between atoms: _810  and  _811
REMARK  327  A    between atoms: _810  and  _813
REMARK  328  A    between atoms: _813  and  _814
REMARK  329  A    between atoms: _814  and  _815
REMARK  330  A    between atoms: _818  and  _820
REMARK  331  A    between atoms: _820  and  _821
REMARK  332  A    between atoms: _820  and  _823
REMARK  333  A    between atoms: _823  and  _824
REMARK  334  A    between atoms: _834  and  _836
REMARK  335  A    between atoms: _836  and  _837
REMARK  336  A    between atoms: _836  and  _839
REMARK  337  A    between atoms: _839  and  _840
REMARK  338  A    between atoms: _843  and  _845
REMARK  339  A    between atoms: _845  and  _846
REMARK  340  A    between atoms: _845  and  _848
REMARK  341  A    between atoms: _848  and  _849
REMARK  342  A    between atoms: _849  and  _850
REMARK  343  A    between atoms: _850  and  _851
REMARK  344  A    between atoms: _860  and  _862
REMARK  345  A    between atoms: _862  and  _863
REMARK  346  A    between atoms: _862  and  _865
REMARK  347  A    between atoms: _865  and  _866
REMARK  348  A    between atoms: _871  and  _872
REMARK  349  A    between atoms: _874  and  _876
REMARK  350  A    between atoms: _876  and  _877
REMARK  351  A    between atoms: _876  and  _879
REMARK  352  A    between atoms: _879  and  _880
REMARK  353  A    between atoms: _880  and  _881
REMARK  354  A    between atoms: _886  and  _888
REMARK  355  A    between atoms: _888  and  _889
REMARK  356  A    between atoms: _888  and  _891
REMARK  357  A    between atoms: _891  and  _892
REMARK  358  A    between atoms: _895  and  _897
REMARK  359  A    between atoms: _897  and  _898
REMARK  360  A    between atoms: _897  and  _900
REMARK  361  A    between atoms: _900  and  _901
REMARK  362  A    between atoms: _903  and  _905
REMARK  363  A    between atoms: _905  and  _906
REMARK  364  A    between atoms: _905  and  _908
REMARK  365  A    between atoms: _908  and  _909
REMARK  366  A    between atoms: _911  and  _913
REMARK  367  A    between atoms: _913  and  _914
REMARK  368  A    between atoms: _913  and  _916
REMARK  369  A    between atoms: _916  and  _917
REMARK  370  A    between atoms: _923  and  _925
REMARK  371  A    between atoms: _925  and  _926
REMARK  372  A    between atoms: _925  and  _928
REMARK  373  A    between atoms: _928  and  _929
REMARK  374  A    between atoms: _929  and  _930
REMARK  375  A    between atoms: _930  and  _931
REMARK  376  A    between atoms: _940  and  _942
REMARK  377  A    between atoms: _942  and  _943
REMARK  378  A    between atoms: _942  and  _945
REMARK  379  A    between atoms: _945  and  _946
REMARK  380  A    between atoms: _946  and  _947
REMARK  381  A    between atoms: _947  and  _948
REMARK  382  A    between atoms: _957  and  _959
REMARK  383  A    between atoms: _959  and  _960
REMARK  384  A    between atoms: _962  and  _964
REMARK  385  A    between atoms: _964  and  _965
REMARK  386  A    between atoms: _964  and  _967
REMARK  387  A    between atoms: _967  and  _968
REMARK  388  A    between atoms: _974  and  _975
REMARK  389  A    between atoms: _980  and  _982
REMARK  390  A    between atoms: _982  and  _983
REMARK  391  A    between atoms: _982  and  _985
REMARK  392  A    between atoms: _985  and  _986
REMARK  393  A    between atoms: _996  and  _998
REMARK  394  A    between atoms: _998  and  _999
REMARK  395  A    between atoms: _998  and  _1001
REMARK  396  A    between atoms: _1001  and  _1002
REMARK  397  A    between atoms: _1002  and  _1003
REMARK  398  A    between atoms: _1003  and  _1004
REMARK  399  A    between atoms: _1013  and  _1015
REMARK  400  A    between atoms: _1015  and  _1016
REMARK  401  A    between atoms: _1015  and  _1018
REMARK  402  A    between atoms: _1018  and  _1019
REMARK  403  A    between atoms: _1021  and  _1023
REMARK  404  A    between atoms: _1023  and  _1024
REMARK  405  A    between atoms: _1027  and  _1029
REMARK  406  A    between atoms: _1029  and  _1030
REMARK  407  A    between atoms: _1029  and  _1032
REMARK  408  A    between atoms: _1032  and  _1033
REMARK  409  A    between atoms: _1036  and  _1038
REMARK  410  A    between atoms: _1038  and  _1039
REMARK  411  A    between atoms: _1038  and  _1041
REMARK  412  A    between atoms: _1041  and  _1042
REMARK  413  A    between atoms: _1042  and  _1043
REMARK  414  A    between atoms: _1043  and  _1044
REMARK  415  A    between atoms: _1053  and  _1055
REMARK  416  A    between atoms: _1055  and  _1056
REMARK  417  A    between atoms: _1055  and  _1058
REMARK  418  A    between atoms: _1061  and  _1063
REMARK  419  A    between atoms: _1063  and  _1064
REMARK  420  A    between atoms: _1066  and  _1068
REMARK  421  A    between atoms: _1068  and  _1069
REMARK  422  A    between atoms: _1068  and  _1071
REMARK  423  A    between atoms: _1071  and  _1072
REMARK                            x       y       z     vdW  Elec       q    Type
REMARK                         _______ _______ _______ _____ _____    ______ ____
ROOT
ATOM      1  O   HOH     1       4.405  20.803  49.903  0.00  0.00    +0.000 OA
ENDROOT
TORSDOF 0
REMARK  Name = ../refined-set-2016/1fo0/1fo0_pocket.pdb
REMARK  423 active torsions:
REMARK  status: ('A' for Active; 'I' for Inactive)
REMARK    1  A    between atoms: _1  and  _3
REMARK    2  A    between atoms: _3  and  _4
REMARK    3  A    between atoms: _3  and  _6
REMARK    4  A    between atoms: _6  and  _7
REMARK    5  A    between atoms: _10  and  _12
REMARK    6  A    between atoms: _12  and  _13
REMARK    7  A    between atoms: _12  and  _15
REMARK    8  A    between atoms: _15  and  _16
REMARK    9  A    between atoms: _16  and  _17
REMARK   10  A    between atoms: _17  and  _18
REMARK   11  A    between atoms: _27  and  _29
REMARK   12  A    between atoms: _29  and  _30
REMARK   13  A    between atoms: _29  and  _32
REMARK   14  A    between atoms: _32  and  _33
REMARK   15  A    between atoms: _38  and  _39
REMARK   16  A    between atoms: _41  and  _43
REMARK   17  A    between atoms: _43  and  _44
REMARK   18  A    between atoms: _43  and  _46
REMARK   19  A    between atoms: _46  and  _47
REMARK   20  A    between atoms: _53  and  _55
REMARK   21  A    between atoms: _55  and  _56
REMARK   22  A    between atoms: _55  and  _58
REMARK   23  A    between atoms: _61  and  _63
REMARK   24  A    between atoms: _63  and  _64
REMARK   25  A    between atoms: _63  and  _66
REMARK   26  A    between atoms: _66  and  _67
REMARK   27  A    between atoms: _70  and  _72
REMARK   28  A    between atoms: _72  and  _73
REMARK   29  A    between atoms: _72  and  _75
REMARK   30  A    between atoms: _75  and  _76
REMARK   31  A    between atoms: _81  and  _82
REMARK   32  A    between atoms: _84  and  _86
REMARK   33  A    between atoms: _86  and  _87
REMARK   34  A    between atoms: _86  and  _89
REMARK   35  A    between atoms: _89  and  _90
REMARK   36  A    between atoms: _90  and  _91
REMARK   37  A    between atoms: _93  and  _95
REMARK   38  A    between atoms: _95  and  _96
REMARK   39  A    between atoms: _95  and  _98
REMARK   40  A    between atoms: _98  and  _99
REMARK   41  A    between atoms: _99  and  _100
REMARK   42  A    between atoms: _103  and  _105
REMARK   43  A    between atoms: _105  and  _106
REMARK   44  A    between atoms: _105  and  _108
REMARK   45  A    between atoms: _111  and  _113
REMARK   46  A    between atoms: _113  and  _114
REMARK   47  A    between atoms: _116  and  _118
REMARK   48  A    between atoms: _118  and  _119
REMARK   49  A    between atoms: _118  and  _121
REMARK   50  A    between atoms: _121  and  _122
REMARK   51  A    between atoms: _128  and  _130
REMARK   52  A    between atoms: _130  and  _131
REMARK   53  A    between atoms: _130  and  _133
REMARK   54  A    between atoms: _136  and  _138
REMARK   55  A    between atoms: _138  and  _139
REMARK   56  A    between atoms: _138  and  _141
REMARK   57  A    between atoms: _141  and  _142
REMARK   58  A    between atoms: _148  and  _150
REMARK   59  A    between atoms: _150  and  _151
REMARK   60  A    between atoms: _150  and  _153
REMARK   61  A    between atoms: _153  and  _154
REMARK   62  A    between atoms: _159  and  _160
REMARK   63  A    between atoms: _162  and  _164
REMARK   64  A    between atoms: _164  and  _165
REMARK   65  A    between atoms: _164  and  _167
REMARK   66  A    between atoms: _167  and  _168
REMARK   67  A    between atoms: _168  and  _169
REMARK   68  A    between atoms: _171  and  _173
REMARK   69  A    between atoms: _173  and  _174
REMARK   70  A    between atoms: _173  and  _176
REMARK   71  A    between atoms: _176  and  _177
REMARK   72  A    between atoms: _177  and  _178
REMARK   73  A    between atoms: _181  and  _183
REMARK   74  A    between atoms: _183  and  _184
REMARK   75  A    between atoms: _183  and  _186
REMARK   76  A    between atoms: _186  and  _187
REMARK   77  A    between atoms: _192  and  _193
REMARK   78  A    between atoms: _195  and  _197
REMARK   79  A    between atoms: _197  and  _198
REMARK   80  A    between atoms: _197  and  _200
REMARK   81  A    between atoms: _200  and  _201
REMARK   82  A    between atoms: _201  and  _202
REMARK   83  A    between atoms: _202  and  _203
REMARK   84  A    between atoms: _212  and  _214
REMARK   85  A    between atoms: _214  and  _215
REMARK   86  A    between atoms: _214  and  _217
REMARK   87  A    between atoms: _217  and  _218
REMARK   88  A    between atoms: _218  and  _219
REMARK   89  A    between atoms: _222  and  _224
REMARK   90  A    between atoms: _224  and  _225
REMARK   91  A    between atoms: _224  and  _227
REMARK   92  A    between atoms: _227  and  _228
REMARK   93  A    between atoms: _228  and  _229
REMARK   94  A    between atoms: _234  and  _236
REMARK   95  A    between atoms: _236  and  _237
REMARK   96  A    between atoms: _236  and  _239
REMARK   97  A    between atoms: _239  and  _240
REMARK   98  A    between atoms: _240  and  _241
REMARK   99  A    between atoms: _241  and  _242
REMARK  100  A    between atoms: _242  and  _243
REMARK  101  A    between atoms: _247  and  _249
REMARK  102  A    between atoms: _249  and  _250
REMARK  103  A    between atoms: _253  and  _255
REMARK  104  A    between atoms: _255  and  _256
REMARK  105  A    between atoms: _255  and  _258
REMARK  106  A    between atoms: _258  and  _259
REMARK  107  A    between atoms: _259  and  _260
REMARK  108  A    between atoms: _260  and  _261
REMARK  109  A    between atoms: _261  and  _262
REMARK  110  A    between atoms: _266  and  _268
REMARK  111  A    between atoms: _268  and  _269
REMARK  112  A    between atoms: _271  and  _273
REMARK  113  A    between atoms: _273  and  _274
REMARK  114  A    between atoms: _273  and  _276
REMARK  115  A    between atoms: _276  and  _277
REMARK  116  A    between atoms: _282  and  _284
REMARK  117  A    between atoms: _284  and  _285
REMARK  118  A    between atoms: _284  and  _287
REMARK  119  A    between atoms: _287  and  _288
REMARK  120  A    between atoms: _288  and  _289
REMARK  121  A    between atoms: _292  and  _294
REMARK  122  A    between atoms: _294  and  _295
REMARK  123  A    between atoms: _294  and  _297
REMARK  124  A    between atoms: _297  and  _298
REMARK  125  A    between atoms: _298  and  _299
REMARK  126  A    between atoms: _304  and  _306
REMARK  127  A    between atoms: _306  and  _307
REMARK  128  A    between atoms: _306  and  _309
REMARK  129  A    between atoms: _309  and  _310
REMARK  130  A    between atoms: _312  and  _314
REMARK  131  A    between atoms: _314  and  _315
REMARK  132  A    between atoms: _314  and  _317
REMARK  133  A    between atoms: _317  and  _318
REMARK  134  A    between atoms: _324  and  _326
REMARK  135  A    between atoms: _326  and  _327
REMARK  136  A    between atoms: _326  and  _329
REMARK  137  A    between atoms: _329  and  _330
REMARK  138  A    between atoms: _330  and  _331
REMARK  139  A    between atoms: _331  and  _332
REMARK  140  A    between atoms: _341  and  _343
REMARK  141  A    between atoms: _343  and  _344
REMARK  142  A    between atoms: _343  and  _346
REMARK  143  A    between atoms: _349  and  _351
REMARK  144  A    between atoms: _351  and  _352
REMARK  145  A    between atoms: _351  and  _354
REMARK  146  A    between atoms: _354  and  _355
REMARK  147  A    between atoms: _358  and  _360
REMARK  148  A    between atoms: _360  and  _361
REMARK  149  A    between atoms: _360  and  _363
REMARK  150  A    between atoms: _363  and  _364
REMARK  151  A    between atoms: _367  and  _369
REMARK  152  A    between atoms: _369  and  _370
REMARK  153  A    between atoms: _369  and  _372
REMARK  154  A    between atoms: _372  and  _373
REMARK  155  A    between atoms: _373  and  _374
REMARK  156  A    between atoms: _374  and  _375
REMARK  157  A    between atoms: _384  and  _386
REMARK  158  A    between atoms: _386  and  _387
REMARK  159  A    between atoms: _386  and  _389
REMARK  160  A    between atoms: _389  and  _390
REMARK  161  A    between atoms: _393  and  _395
REMARK  162  A    between atoms: _395  and  _396
REMARK  163  A    between atoms: _395  and  _398
REMARK  164  A    between atoms: _398  and  _399
REMARK  165  A    between atoms: _402  and  _404
REMARK  166  A    between atoms: _404  and  _405
REMARK  167  A    between atoms: _404  and  _407
REMARK  168  A    between atoms: _407  and  _408
REMARK  169  A    between atoms: _411  and  _413
REMARK  170  A    between atoms: _413  and  _414
REMARK  171  A    between atoms: _413  and  _416
REMARK  172  A    between atoms: _416  and  _417
REMARK  173  A    between atoms: _422  and  _423
REMARK  174  A    between atoms: _425  and  _427
REMARK  175  A    between atoms: _427  and  _428
REMARK  176  A    between atoms: _427  and  _430
REMARK  177  A    between atoms: _430  and  _431
REMARK  178  A    between atoms: _436  and  _437
REMARK  179  A    between atoms: _439  and  _441
REMARK  180  A    between atoms: _441  and  _442
REMARK  181  A    between atoms: _441  and  _444
REMARK  182  A    between atoms: _444  and  _445
REMARK  183  A    between atoms: _448  and  _450
REMARK  184  A    between atoms: _450  and  _451
REMARK  185  A    between atoms: _450  and  _453
REMARK  186  A    between atoms: _456  and  _458
REMARK  187  A    between atoms: _458  and  _459
REMARK  188  A    between atoms: _458  and  _461
REMARK  189  A    between atoms: _461  and  _462
REMARK  190  A    between atoms: _465  and  _467
REMARK  191  A    between atoms: _467  and  _468
REMARK  192  A    between atoms: _467  and  _470
REMARK  193  A    between atoms: _470  and  _471
REMARK  194  A    between atoms: _473  and  _475
REMARK  195  A    between atoms: _475  and  _476
REMARK  196  A    between atoms: _478  and  _480
REMARK  197  A    between atoms: _480  and  _481
REMARK  198  A    between atoms: _480  and  _483
REMARK  199  A    between atoms: _483  and  _484
REMARK  200  A    between atoms: _489  and  _490
REMARK  201  A    between atoms: _492  and  _494
REMARK  202  A    between atoms: _494  and  _495
REMARK  203  A    between atoms: _494  and  _497
REMARK  204  A    between atoms: _497  and  _498
REMARK  205  A    between atoms: _498  and  _499
REMARK  206  A    between atoms: _504  and  _506
REMARK  207  A    between atoms: _506  and  _507
REMARK  208  A    between atoms: _506  and  _509
REMARK  209  A    between atoms: _509  and  _510
REMARK  210  A    between atoms: _510  and  _511
REMARK  211  A    between atoms: _516  and  _518
REMARK  212  A    between atoms: _518  and  _519
REMARK  213  A    between atoms: _518  and  _521
REMARK  214  A    between atoms: _521  and  _522
REMARK  215  A    between atoms: _527  and  _528
REMARK  216  A    between atoms: _530  and  _532
REMARK  217  A    between atoms: _532  and  _533
REMARK  218  A    between atoms: _532  and  _535
REMARK  219  A    between atoms: _535  and  _536
REMARK  220  A    between atoms: _541  and  _542
REMARK  221  A    between atoms: _544  and  _546
REMARK  222  A    between atoms: _546  and  _547
REMARK  223  A    between atoms: _546  and  _549
REMARK  224  A    between atoms: _549  and  _550
REMARK  225  A    between atoms: _555  and  _556
REMARK  226  A    between atoms: _558  and  _560
REMARK  227  A    between atoms: _560  and  _561
REMARK  228  A    between atoms: _560  and  _563
REMARK  229  A    between atoms: _563  and  _564
REMARK  230  A    between atoms: _567  and  _569
REMARK  231  A    between atoms: _569  and  _570
REMARK  232  A    between atoms: _569  and  _572
REMARK  233  A    between atoms: _572  and  _573
REMARK  234  A    between atoms: _583  and  _585
REMARK  235  A    between atoms: _585  and  _586
REMARK  236  A    between atoms: _589  and  _591
REMARK  237  A    between atoms: _591  and  _592
REMARK  238  A    between atoms: _595  and  _597
REMARK  239  A    between atoms: _597  and  _598
REMARK  240  A    between atoms: _597  and  _600
REMARK  241  A    between atoms: _600  and  _601
REMARK  242  A    between atoms: _604  and  _606
REMARK  243  A    between atoms: _606  and  _607
REMARK  244  A    between atoms: _606  and  _609
REMARK  245  A    between atoms: _609  and  _610
REMARK  246  A    between atoms: _613  and  _615
REMARK  247  A    between atoms: _615  and  _616
REMARK  248  A    between atoms: _615  and  _618
REMARK  249  A    between atoms: _618  and  _619
REMARK  250  A    between atoms: _622  and  _624
REMARK  251  A    between atoms: _624  and  _625
REMARK  252  A    between atoms: _624  and  _627
REMARK  253  A    between atoms: _627  and  _628
REMARK  254  A    between atoms: _628  and  _629
REMARK  255  A    between atoms: _629  and  _630
REMARK  256  A    between atoms: _630  and  _631
REMARK  257  A    between atoms: _635  and  _637
REMARK  258  A    between atoms: _637  and  _638
REMARK  259  A    between atoms: _637  and  _640
REMARK  260  A    between atoms: _640  and  _641
REMARK  261  A    between atoms: _646  and  _648
REMARK  262  A    between atoms: _648  and  _649
REMARK  263  A    between atoms: _648  and  _651
REMARK  264  A    between atoms: _651  and  _652
REMARK  265  A    between atoms: _652  and  _653
REMARK  266  A    between atoms: _653  and  _654
REMARK  267  A    between atoms: _654  and  _655
REMARK  268  A    between atoms: _659  and  _661
REMARK  269  A    between atoms: _661  and  _662
REMARK  270  A    between atoms: _661  and  _664
REMARK  271  A    between atoms: _664  and  _665
REMARK  272  A    between atoms: _675  and  _677
REMARK  273  A    between atoms: _677  and  _678
REMARK  274  A    between atoms: _681  and  _683
REMARK  275  A    between atoms: _683  and  _684
REMARK  276  A    between atoms: _686  and  _688
REMARK  277  A    between atoms: _688  and  _689
REMARK  278  A    between atoms: _688  and  _691
REMARK  279  A    between atoms: _691  and  _692
REMARK  280  A    between atoms: _692  and  _693
REMARK  281  A    between atoms: _696  and  _698
REMARK  282  A    between atoms: _698  and  _699
REMARK  283  A    between atoms: _702  and  _704
REMARK  284  A    between atoms: _704  and  _705
REMARK  285  A    between atoms: _704  and  _707
REMARK  286  A    between atoms: _707  and  _708
REMARK  287  A    between atoms: _708  and  _709
REMARK  288  A    between atoms: _712  and  _714
REMARK  289  A    between atoms: _714  and  _715
REMARK  290  A    between atoms: _714  and  _717
REMARK  291  A    between atoms: _717  and  _718
REMARK  292  A    between atoms: _718  and  _719
REMARK  293  A    between atoms: _719  and  _720
REMARK  294  A    between atoms: _729  and  _731
REMARK  295  A    between atoms: _731  and  _732
REMARK  296  A    between atoms: _731  and  _734
REMARK  297  A    between atoms: _734  and  _735
REMARK  298  A    between atoms: _738  and  _740
REMARK  299  A    between atoms: _740  and  _741
REMARK  300  A    between atoms: _740  and  _743
REMARK  301  A    between atoms: _743  and  _744
REMARK  302  A    between atoms: _744  and  _745
REMARK  303  A    between atoms: _745  and  _746
REMARK  304  A    between atoms: _755  and  _757
REMARK  305  A    between atoms: _757  and  _758
REMARK  306  A    between atoms: _761  and  _763
REMARK  307  A    between atoms: _763  and  _764
REMARK  308  A    between atoms: _763  and  _766
REMARK  309  A    between atoms: _766  and  _767
REMARK  310  A    between atoms: _772  and  _773
REMARK  311  A    between atoms: _775  and  _777
REMARK  312  A    between atoms: _777  and  _778
REMARK  313  A    between atoms: _777  and  _780
REMARK  314  A    between atoms: _780  and  _781
REMARK  315  A    between atoms: _784  and  _786
REMARK  316  A    between atoms: _786  and  _787
REMARK  317  A    between atoms: _786  and  _789
REMARK  318  A    between atoms: _789  and  _790
REMARK  319  A    between atoms: _793  and  _795
REMARK  320  A    between atoms: _795  and  _796
REMARK  321  A    between atoms: _795  and  _798
REMARK  322  A    between atoms: _800  and  _802
REMARK  323  A    between atoms: _802  and  _803
REMARK  324  A    between atoms: _802  and  _805
REMARK  325  A    between atoms: _808  and  _810
REMARK  326  A    between atoms: _810  and  _811
REMARK  327  A    between atoms: _810  and  _813
REMARK  328  A    between atoms: _813  and  _814
REMARK  329  A    between atoms: _814  and  _815
REMARK  330  A    between atoms: _818  and  _820
REMARK  331  A    between atoms: _820  and  _821
REMARK  332  A    between atoms: _820  and  _823
REMARK  333  A    between atoms: _823  and  _824
REMARK  334  A    between atoms: _834  and  _836
REMARK  335  A    between atoms: _836  and  _837
REMARK  336  A    between atoms: _836  and  _839
REMARK  337  A    between atoms: _839  and  _840
REMARK  338  A    between atoms: _843  and  _845
REMARK  339  A    between atoms: _845  and  _846
REMARK  340  A    between atoms: _845  and  _848
REMARK  341  A    between atoms: _848  and  _849
REMARK  342  A    between atoms: _849  and  _850
REMARK  343  A    between atoms: _850  and  _851
REMARK  344  A    between atoms: _860  and  _862
REMARK  345  A    between atoms: _862  and  _863
REMARK  346  A    between atoms: _862  and  _865
REMARK  347  A    between atoms: _865  and  _866
REMARK  348  A    between atoms: _871  and  _872
REMARK  349  A    between atoms: _874  and  _876
REMARK  350  A    between atoms: _876  and  _877
REMARK  351  A    between atoms: _876  and  _879
REMARK  352  A    between atoms: _879  and  _880
REMARK  353  A    between atoms: _880  and  _881
REMARK  354  A    between atoms: _886  and  _888
REMARK  355  A    between atoms: _888  and  _889
REMARK  356  A    between atoms: _888  and  _891
REMARK  357  A    between atoms: _891  and  _892
REMARK  358  A    between atoms: _895  and  _897
REMARK  359  A    between atoms: _897  and  _898
REMARK  360  A    between atoms: _897  and  _900
REMARK  361  A    between atoms: _900  and  _901
REMARK  362  A    between atoms: _903  and  _905
REMARK  363  A    between atoms: _905  and  _906
REMARK  364  A    between atoms: _905  and  _908
REMARK  365  A    between atoms: _908  and  _909
REMARK  366  A    between atoms: _911  and  _913
REMARK  367  A    between atoms: _913  and  _914
REMARK  368  A    between atoms: _913  and  _916
REMARK  369  A    between atoms: _916  and  _917
REMARK  370  A    between atoms: _923  and  _925
REMARK  371  A    between atoms: _925  and  _926
REMARK  372  A    between atoms: _925  and  _928
REMARK  373  A    between atoms: _928  and  _929
REMARK  374  A    between atoms: _929  and  _930
REMARK  375  A    between atoms: _930  and  _931
REMARK  376  A    between atoms: _940  and  _942
REMARK  377  A    between atoms: _942  and  _943
REMARK  378  A    between atoms: _942  and  _945
REMARK  379  A    between atoms: _945  and  _946
REMARK  380  A    between atoms: _946  and  _947
REMARK  381  A    between atoms: _947  and  _948
REMARK  382  A    between atoms: _957  and  _959
REMARK  383  A    between atoms: _959  and  _960
REMARK  384  A    between atoms: _962  and  _964
REMARK  385  A    between atoms: _964  and  _965
REMARK  386  A    between atoms: _964  and  _967
REMARK  387  A    between atoms: _967  and  _968
REMARK  388  A    between atoms: _974  and  _975
REMARK  389  A    between atoms: _980  and  _982
REMARK  390  A    between atoms: _982  and  _983
REMARK  391  A    between atoms: _982  and  _985
REMARK  392  A    between atoms: _985  and  _986
REMARK  393  A    between atoms: _996  and  _998
REMARK  394  A    between atoms: _998  and  _999
REMARK  395  A    between atoms: _998  and  _1001
REMARK  396  A    between atoms: _1001  and  _1002
REMARK  397  A    between atoms: _1002  and  _1003
REMARK  398  A    between atoms: _1003  and  _1004
REMARK  399  A    between atoms: _1013  and  _1015
REMARK  400  A    between atoms: _1015  and  _1016
REMARK  401  A    between atoms: _1015  and  _1018
REMARK  402  A    between atoms: _1018  and  _1019
REMARK  403  A    between atoms: _1021  and  _1023
REMARK  404  A    between atoms: _1023  and  _1024
REMARK  405  A    between atoms: _1027  and  _1029
REMARK  406  A    between atoms: _1029  and  _1030
REMARK  407  A    between atoms: _1029  and  _1032
REMARK  408  A    between atoms: _1032  and  _1033
REMARK  409  A    between atoms: _1036  and  _1038
REMARK  410  A    between atoms: _1038  and  _1039
REMARK  411  A    between atoms: _1038  and  _1041
REMARK  412  A    between atoms: _1041  and  _1042
REMARK  413  A    between atoms: _1042  and  _1043
REMARK  414  A    between atoms: _1043  and  _1044
REMARK  415  A    between atoms: _1053  and  _1055
REMARK  416  A    between atoms: _1055  and  _1056
REMARK  417  A    between atoms: _1055  and  _1058
REMARK  418  A    between atoms: _1061  and  _1063
REMARK  419  A    between atoms: _1063  and  _1064
REMARK  420  A    between atoms: _1066  and  _1068
REMARK  421  A    between atoms: _1068  and  _1069
REMARK  422  A    between atoms: _1068  and  _1071
REMARK  423  A    between atoms: _1071  and  _1072
REMARK                            x       y       z     vdW  Elec       q    Type
REMARK                         _______ _______ _______ _____ _____    ______ ____
ROOT
ATOM      1  O   HOH     1      27.686  39.253  43.633  0.00  0.00    +0.000 OA
ENDROOT
TORSDOF 0
REMARK  Name = ../refined-set-2016/1fo0/1fo0_pocket.pdb
REMARK  423 active torsions:
REMARK  status: ('A' for Active; 'I' for Inactive)
REMARK    1  A    between atoms: _1  and  _3
REMARK    2  A    between atoms: _3  and  _4
REMARK    3  A    between atoms: _3  and  _6
REMARK    4  A    between atoms: _6  and  _7
REMARK    5  A    between atoms: _10  and  _12
REMARK    6  A    between atoms: _12  and  _13
REMARK    7  A    between atoms: _12  and  _15
REMARK    8  A    between atoms: _15  and  _16
REMARK    9  A    between atoms: _16  and  _17
REMARK   10  A    between atoms: _17  and  _18
REMARK   11  A    between atoms: _27  and  _29
REMARK   12  A    between atoms: _29  and  _30
REMARK   13  A    between atoms: _29  and  _32
REMARK   14  A    between atoms: _32  and  _33
REMARK   15  A    between atoms: _38  and  _39
REMARK   16  A    between atoms: _41  and  _43
REMARK   17  A    between atoms: _43  and  _44
REMARK   18  A    between atoms: _43  and  _46
REMARK   19  A    between atoms: _46  and  _47
REMARK   20  A    between atoms: _53  and  _55
REMARK   21  A    between atoms: _55  and  _56
REMARK   22  A    between atoms: _55  and  _58
REMARK   23  A    between atoms: _61  and  _63
REMARK   24  A    between atoms: _63  and  _64
REMARK   25  A    between atoms: _63  and  _66
REMARK   26  A    between atoms: _66  and  _67
REMARK   27  A    between atoms: _70  and  _72
REMARK   28  A    between atoms: _72  and  _73
REMARK   29  A    between atoms: _72  and  _75
REMARK   30  A    between atoms: _75  and  _76
REMARK   31  A    between atoms: _81  and  _82
REMARK   32  A    between atoms: _84  and  _86
REMARK   33  A    between atoms: _86  and  _87
REMARK   34  A    between atoms: _86  and  _89
REMARK   35  A    between atoms: _89  and  _90
REMARK   36  A    between atoms: _90  and  _91
REMARK   37  A    between atoms: _93  and  _95
REMARK   38  A    between atoms: _95  and  _96
REMARK   39  A    between atoms: _95  and  _98
REMARK   40  A    between atoms: _98  and  _99
REMARK   41  A    between atoms: _99  and  _100
REMARK   42  A    between atoms: _103  and  _105
REMARK   43  A    between atoms: _105  and  _106
REMARK   44  A    between atoms: _105  and  _108
REMARK   45  A    between atoms: _111  and  _113
REMARK   46  A    between atoms: _113  and  _114
REMARK   47  A    between atoms: _116  and  _118
REMARK   48  A    between atoms: _118  and  _119
REMARK   49  A    between atoms: _118  and  _121
REMARK   50  A    between atoms: _121  and  _122
REMARK   51  A    between atoms: _128  and  _130
REMARK   52  A    between atoms: _130  and  _131
REMARK   53  A    between atoms: _130  and  _133
REMARK   54  A    between atoms: _136  and  _138
REMARK   55  A    between atoms: _138  and  _139
REMARK   56  A    between atoms: _138  and  _141
REMARK   57  A    between atoms: _141  and  _142
REMARK   58  A    between atoms: _148  and  _150
REMARK   59  A    between atoms: _150  and  _151
REMARK   60  A    between atoms: _150  and  _153
REMARK   61  A    between atoms: _153  and  _154
REMARK   62  A    between atoms: _159  and  _160
REMARK   63  A    between atoms: _162  and  _164
REMARK   64  A    between atoms: _164  and  _165
REMARK   65  A    between atoms: _164  and  _167
REMARK   66  A    between atoms: _167  and  _168
REMARK   67  A    between atoms: _168  and  _169
REMARK   68  A    between atoms: _171  and  _173
REMARK   69  A    between atoms: _173  and  _174
REMARK   70  A    between atoms: _173  and  _176
REMARK   71  A    between atoms: _176  and  _177
REMARK   72  A    between atoms: _177  and  _178
REMARK   73  A    between atoms: _181  and  _183
REMARK   74  A    between atoms: _183  and  _184
REMARK   75  A    between atoms: _183  and  _186
REMARK   76  A    between atoms: _186  and  _187
REMARK   77  A    between atoms: _192  and  _193
REMARK   78  A    between atoms: _195  and  _197
REMARK   79  A    between atoms: _197  and  _198
REMARK   80  A    between atoms: _197  and  _200
REMARK   81  A    between atoms: _200  and  _201
REMARK   82  A    between atoms: _201  and  _202
REMARK   83  A    between atoms: _202  and  _203
REMARK   84  A    between atoms: _212  and  _214
REMARK   85  A    between atoms: _214  and  _215
REMARK   86  A    between atoms: _214  and  _217
REMARK   87  A    between atoms: _217  and  _218
REMARK   88  A    between atoms: _218  and  _219
REMARK   89  A    between atoms: _222  and  _224
REMARK   90  A    between atoms: _224  and  _225
REMARK   91  A    between atoms: _224  and  _227
REMARK   92  A    between atoms: _227  and  _228
REMARK   93  A    between atoms: _228  and  _229
REMARK   94  A    between atoms: _234  and  _236
REMARK   95  A    between atoms: _236  and  _237
REMARK   96  A    between atoms: _236  and  _239
REMARK   97  A    between atoms: _239  and  _240
REMARK   98  A    between atoms: _240  and  _241
REMARK   99  A    between atoms: _241  and  _242
REMARK  100  A    between atoms: _242  and  _243
REMARK  101  A    between atoms: _247  and  _249
REMARK  102  A    between atoms: _249  and  _250
REMARK  103  A    between atoms: _253  and  _255
REMARK  104  A    between atoms: _255  and  _256
REMARK  105  A    between atoms: _255  and  _258
REMARK  106  A    between atoms: _258  and  _259
REMARK  107  A    between atoms: _259  and  _260
REMARK  108  A    between atoms: _260  and  _261
REMARK  109  A    between atoms: _261  and  _262
REMARK  110  A    between atoms: _266  and  _268
REMARK  111  A    between atoms: _268  and  _269
REMARK  112  A    between atoms: _271  and  _273
REMARK  113  A    between atoms: _273  and  _274
REMARK  114  A    between atoms: _273  and  _276
REMARK  115  A    between atoms: _276  and  _277
REMARK  116  A    between atoms: _282  and  _284
REMARK  117  A    between atoms: _284  and  _285
REMARK  118  A    between atoms: _284  and  _287
REMARK  119  A    between atoms: _287  and  _288
REMARK  120  A    between atoms: _288  and  _289
REMARK  121  A    between atoms: _292  and  _294
REMARK  122  A    between atoms: _294  and  _295
REMARK  123  A    between atoms: _294  and  _297
REMARK  124  A    between atoms: _297  and  _298
REMARK  125  A    between atoms: _298  and  _299
REMARK  126  A    between atoms: _304  and  _306
REMARK  127  A    between atoms: _306  and  _307
REMARK  128  A    between atoms: _306  and  _309
REMARK  129  A    between atoms: _309  and  _310
REMARK  130  A    between atoms: _312  and  _314
REMARK  131  A    between atoms: _314  and  _315
REMARK  132  A    between atoms: _314  and  _317
REMARK  133  A    between atoms: _317  and  _318
REMARK  134  A    between atoms: _324  and  _326
REMARK  135  A    between atoms: _326  and  _327
REMARK  136  A    between atoms: _326  and  _329
REMARK  137  A    between atoms: _329  and  _330
REMARK  138  A    between atoms: _330  and  _331
REMARK  139  A    between atoms: _331  and  _332
REMARK  140  A    between atoms: _341  and  _343
REMARK  141  A    between atoms: _343  and  _344
REMARK  142  A    between atoms: _343  and  _346
REMARK  143  A    between atoms: _349  and  _351
REMARK  144  A    between atoms: _351  and  _352
REMARK  145  A    between atoms: _351  and  _354
REMARK  146  A    between atoms: _354  and  _355
REMARK  147  A    between atoms: _358  and  _360
REMARK  148  A    between atoms: _360  and  _361
REMARK  149  A    between atoms: _360  and  _363
REMARK  150  A    between atoms: _363  and  _364
REMARK  151  A    between atoms: _367  and  _369
REMARK  152  A    between atoms: _369  and  _370
REMARK  153  A    between atoms: _369  and  _372
REMARK  154  A    between atoms: _372  and  _373
REMARK  155  A    between atoms: _373  and  _374
REMARK  156  A    between atoms: _374  and  _375
REMARK  157  A    between atoms: _384  and  _386
REMARK  158  A    between atoms: _386  and  _387
REMARK  159  A    between atoms: _386  and  _389
REMARK  160  A    between atoms: _389  and  _390
REMARK  161  A    between atoms: _393  and  _395
REMARK  162  A    between atoms: _395  and  _396
REMARK  163  A    between atoms: _395  and  _398
REMARK  164  A    between atoms: _398  and  _399
REMARK  165  A    between atoms: _402  and  _404
REMARK  166  A    between atoms: _404  and  _405
REMARK  167  A    between atoms: _404  and  _407
REMARK  168  A    between atoms: _407  and  _408
REMARK  169  A    between atoms: _411  and  _413
REMARK  170  A    between atoms: _413  and  _414
REMARK  171  A    between atoms: _413  and  _416
REMARK  172  A    between atoms: _416  and  _417
REMARK  173  A    between atoms: _422  and  _423
REMARK  174  A    between atoms: _425  and  _427
REMARK  175  A    between atoms: _427  and  _428
REMARK  176  A    between atoms: _427  and  _430
REMARK  177  A    between atoms: _430  and  _431
REMARK  178  A    between atoms: _436  and  _437
REMARK  179  A    between atoms: _439  and  _441
REMARK  180  A    between atoms: _441  and  _442
REMARK  181  A    between atoms: _441  and  _444
REMARK  182  A    between atoms: _444  and  _445
REMARK  183  A    between atoms: _448  and  _450
REMARK  184  A    between atoms: _450  and  _451
REMARK  185  A    between atoms: _450  and  _453
REMARK  186  A    between atoms: _456  and  _458
REMARK  187  A    between atoms: _458  and  _459
REMARK  188  A    between atoms: _458  and  _461
REMARK  189  A    between atoms: _461  and  _462
REMARK  190  A    between atoms: _465  and  _467
REMARK  191  A    between atoms: _467  and  _468
REMARK  192  A    between atoms: _467  and  _470
REMARK  193  A    between atoms: _470  and  _471
REMARK  194  A    between atoms: _473  and  _475
REMARK  195  A    between atoms: _475  and  _476
REMARK  196  A    between atoms: _478  and  _480
REMARK  197  A    between atoms: _480  and  _481
REMARK  198  A    between atoms: _480  and  _483
REMARK  199  A    between atoms: _483  and  _484
REMARK  200  A    between atoms: _489  and  _490
REMARK  201  A    between atoms: _492  and  _494
REMARK  202  A    between atoms: _494  and  _495
REMARK  203  A    between atoms: _494  and  _497
REMARK  204  A    between atoms: _497  and  _498
REMARK  205  A    between atoms: _498  and  _499
REMARK  206  A    between atoms: _504  and  _506
REMARK  207  A    between atoms: _506  and  _507
REMARK  208  A    between atoms: _506  and  _509
REMARK  209  A    between atoms: _509  and  _510
REMARK  210  A    between atoms: _510  and  _511
REMARK  211  A    between atoms: _516  and  _518
REMARK  212  A    between atoms: _518  and  _519
REMARK  213  A    between atoms: _518  and  _521
REMARK  214  A    between atoms: _521  and  _522
REMARK  215  A    between atoms: _527  and  _528
REMARK  216  A    between atoms: _530  and  _532
REMARK  217  A    between atoms: _532  and  _533
REMARK  218  A    between atoms: _532  and  _535
REMARK  219  A    between atoms: _535  and  _536
REMARK  220  A    between atoms: _541  and  _542
REMARK  221  A    between atoms: _544  and  _546
REMARK  222  A    between atoms: _546  and  _547
REMARK  223  A    between atoms: _546  and  _549
REMARK  224  A    between atoms: _549  and  _550
REMARK  225  A    between atoms: _555  and  _556
REMARK  226  A    between atoms: _558  and  _560
REMARK  227  A    between atoms: _560  and  _561
REMARK  228  A    between atoms: _560  and  _563
REMARK  229  A    between atoms: _563  and  _564
REMARK  230  A    between atoms: _567  and  _569
REMARK  231  A    between atoms: _569  and  _570
REMARK  232  A    between atoms: _569  and  _572
REMARK  233  A    between atoms: _572  and  _573
REMARK  234  A    between atoms: _583  and  _585
REMARK  235  A    between atoms: _585  and  _586
REMARK  236  A    between atoms: _589  and  _591
REMARK  237  A    between atoms: _591  and  _592
REMARK  238  A    between atoms: _595  and  _597
REMARK  239  A    between atoms: _597  and  _598
REMARK  240  A    between atoms: _597  and  _600
REMARK  241  A    between atoms: _600  and  _601
REMARK  242  A    between atoms: _604  and  _606
REMARK  243  A    between atoms: _606  and  _607
REMARK  244  A    between atoms: _606  and  _609
REMARK  245  A    between atoms: _609  and  _610
REMARK  246  A    between atoms: _613  and  _615
REMARK  247  A    between atoms: _615  and  _616
REMARK  248  A    between atoms: _615  and  _618
REMARK  249  A    between atoms: _618  and  _619
REMARK  250  A    between atoms: _622  and  _624
REMARK  251  A    between atoms: _624  and  _625
REMARK  252  A    between atoms: _624  and  _627
REMARK  253  A    between atoms: _627  and  _628
REMARK  254  A    between atoms: _628  and  _629
REMARK  255  A    between atoms: _629  and  _630
REMARK  256  A    between atoms: _630  and  _631
REMARK  257  A    between atoms: _635  and  _637
REMARK  258  A    between atoms: _637  and  _638
REMARK  259  A    between atoms: _637  and  _640
REMARK  260  A    between atoms: _640  and  _641
REMARK  261  A    between atoms: _646  and  _648
REMARK  262  A    between atoms: _648  and  _649
REMARK  263  A    between atoms: _648  and  _651
REMARK  264  A    between atoms: _651  and  _652
REMARK  265  A    between atoms: _652  and  _653
REMARK  266  A    between atoms: _653  and  _654
REMARK  267  A    between atoms: _654  and  _655
REMARK  268  A    between atoms: _659  and  _661
REMARK  269  A    between atoms: _661  and  _662
REMARK  270  A    between atoms: _661  and  _664
REMARK  271  A    between atoms: _664  and  _665
REMARK  272  A    between atoms: _675  and  _677
REMARK  273  A    between atoms: _677  and  _678
REMARK  274  A    between atoms: _681  and  _683
REMARK  275  A    between atoms: _683  and  _684
REMARK  276  A    between atoms: _686  and  _688
REMARK  277  A    between atoms: _688  and  _689
REMARK  278  A    between atoms: _688  and  _691
REMARK  279  A    between atoms: _691  and  _692
REMARK  280  A    between atoms: _692  and  _693
REMARK  281  A    between atoms: _696  and  _698
REMARK  282  A    between atoms: _698  and  _699
REMARK  283  A    between atoms: _702  and  _704
REMARK  284  A    between atoms: _704  and  _705
REMARK  285  A    between atoms: _704  and  _707
REMARK  286  A    between atoms: _707  and  _708
REMARK  287  A    between atoms: _708  and  _709
REMARK  288  A    between atoms: _712  and  _714
REMARK  289  A    between atoms: _714  and  _715
REMARK  290  A    between atoms: _714  and  _717
REMARK  291  A    between atoms: _717  and  _718
REMARK  292  A    between atoms: _718  and  _719
REMARK  293  A    between atoms: _719  and  _720
REMARK  294  A    between atoms: _729  and  _731
REMARK  295  A    between atoms: _731  and  _732
REMARK  296  A    between atoms: _731  and  _734
REMARK  297  A    between atoms: _734  and  _735
REMARK  298  A    between atoms: _738  and  _740
REMARK  299  A    between atoms: _740  and  _741
REMARK  300  A    between atoms: _740  and  _743
REMARK  301  A    between atoms: _743  and  _744
REMARK  302  A    between atoms: _744  and  _745
REMARK  303  A    between atoms: _745  and  _746
REMARK  304  A    between atoms: _755  and  _757
REMARK  305  A    between atoms: _757  and  _758
REMARK  306  A    between atoms: _761  and  _763
REMARK  307  A    between atoms: _763  and  _764
REMARK  308  A    between atoms: _763  and  _766
REMARK  309  A    between atoms: _766  and  _767
REMARK  310  A    between atoms: _772  and  _773
REMARK  311  A    between atoms: _775  and  _777
REMARK  312  A    between atoms: _777  and  _778
REMARK  313  A    between atoms: _777  and  _780
REMARK  314  A    between atoms: _780  and  _781
REMARK  315  A    between atoms: _784  and  _786
REMARK  316  A    between atoms: _786  and  _787
REMARK  317  A    between atoms: _786  and  _789
REMARK  318  A    between atoms: _789  and  _790
REMARK  319  A    between atoms: _793  and  _795
REMARK  320  A    between atoms: _795  and  _796
REMARK  321  A    between atoms: _795  and  _798
REMARK  322  A    between atoms: _800  and  _802
REMARK  323  A    between atoms: _802  and  _803
REMARK  324  A    between atoms: _802  and  _805
REMARK  325  A    between atoms: _808  and  _810
REMARK  326  A    between atoms: _810  and  _811
REMARK  327  A    between atoms: _810  and  _813
REMARK  328  A    between atoms: _813  and  _814
REMARK  329  A    between atoms: _814  and  _815
REMARK  330  A    between atoms: _818  and  _820
REMARK  331  A    between atoms: _820  and  _821
REMARK  332  A    between atoms: _820  and  _823
REMARK  333  A    between atoms: _823  and  _824
REMARK  334  A    between atoms: _834  and  _836
REMARK  335  A    between atoms: _836  and  _837
REMARK  336  A    between atoms: _836  and  _839
REMARK  337  A    between atoms: _839  and  _840
REMARK  338  A    between atoms: _843  and  _845
REMARK  339  A    between atoms: _845  and  _846
REMARK  340  A    between atoms: _845  and  _848
REMARK  341  A    between atoms: _848  and  _849
REMARK  342  A    between atoms: _849  and  _850
REMARK  343  A    between atoms: _850  and  _851
REMARK  344  A    between atoms: _860  and  _862
REMARK  345  A    between atoms: _862  and  _863
REMARK  346  A    between atoms: _862  and  _865
REMARK  347  A    between atoms: _865  and  _866
REMARK  348  A    between atoms: _871  and  _872
REMARK  349  A    between atoms: _874  and  _876
REMARK  350  A    between atoms: _876  and  _877
REMARK  351  A    between atoms: _876  and  _879
REMARK  352  A    between atoms: _879  and  _880
REMARK  353  A    between atoms: _880  and  _881
REMARK  354  A    between atoms: _886  and  _888
REMARK  355  A    between atoms: _888  and  _889
REMARK  356  A    between atoms: _888  and  _891
REMARK  357  A    between atoms: _891  and  _892
REMARK  358  A    between atoms: _895  and  _897
REMARK  359  A    between atoms: _897  and  _898
REMARK  360  A    between atoms: _897  and  _900
REMARK  361  A    between atoms: _900  and  _901
REMARK  362  A    between atoms: _903  and  _905
REMARK  363  A    between atoms: _905  and  _906
REMARK  364  A    between atoms: _905  and  _908
REMARK  365  A    between atoms: _908  and  _909
REMARK  366  A    between atoms: _911  and  _913
REMARK  367  A    between atoms: _913  and  _914
REMARK  368  A    between atoms: _913  and  _916
REMARK  369  A    between atoms: _916  and  _917
REMARK  370  A    between atoms: _923  and  _925
REMARK  371  A    between atoms: _925  and  _926
REMARK  372  A    between atoms: _925  and  _928
REMARK  373  A    between atoms: _928  and  _929
REMARK  374  A    between atoms: _929  and  _930
REMARK  375  A    between atoms: _930  and  _931
REMARK  376  A    between atoms: _940  and  _942
REMARK  377  A    between atoms: _942  and  _943
REMARK  378  A    between atoms: _942  and  _945
REMARK  379  A    between atoms: _945  and  _946
REMARK  380  A    between atoms: _946  and  _947
REMARK  381  A    between atoms: _947  and  _948
REMARK  382  A    between atoms: _957  and  _959
REMARK  383  A    between atoms: _959  and  _960
REMARK  384  A    between atoms: _962  and  _964
REMARK  385  A    between atoms: _964  and  _965
REMARK  386  A    between atoms: _964  and  _967
REMARK  387  A    between atoms: _967  and  _968
REMARK  388  A    between atoms: _974  and  _975
REMARK  389  A    between atoms: _980  and  _982
REMARK  390  A    between atoms: _982  and  _983
REMARK  391  A    between atoms: _982  and  _985
REMARK  392  A    between atoms: _985  and  _986
REMARK  393  A    between atoms: _996  and  _998
REMARK  394  A    between atoms: _998  and  _999
REMARK  395  A    between atoms: _998  and  _1001
REMARK  396  A    between atoms: _1001  and  _1002
REMARK  397  A    between atoms: _1002  and  _1003
REMARK  398  A    between atoms: _1003  and  _1004
REMARK  399  A    between atoms: _1013  and  _1015
REMARK  400  A    between atoms: _1015  and  _1016
REMARK  401  A    between atoms: _1015  and  _1018
REMARK  402  A    between atoms: _1018  and  _1019
REMARK  403  A    between atoms: _1021  and  _1023
REMARK  404  A    between atoms: _1023  and  _1024
REMARK  405  A    between atoms: _1027  and  _1029
REMARK  406  A    between atoms: _1029  and  _1030
REMARK  407  A    between atoms: _1029  and  _1032
REMARK  408  A    between atoms: _1032  and  _1033
REMARK  409  A    between atoms: _1036  and  _1038
REMARK  410  A    between atoms: _1038  and  _1039
REMARK  411  A    between atoms: _1038  and  _1041
REMARK  412  A    between atoms: _1041  and  _1042
REMARK  413  A    between atoms: _1042  and  _1043
REMARK  414  A    between atoms: _1043  and  _1044
REMARK  415  A    between atoms: _1053  and  _1055
REMARK  416  A    between atoms: _1055  and  _1056
REMARK  417  A    between atoms: _1055  and  _1058
REMARK  418  A    between atoms: _1061  and  _1063
REMARK  419  A    between atoms: _1063  and  _1064
REMARK  420  A    between atoms: _1066  and  _1068
REMARK  421  A    between atoms: _1068  and  _1069
REMARK  422  A    between atoms: _1068  and  _1071
REMARK  423  A    between atoms: _1071  and  _1072
REMARK                            x       y       z     vdW  Elec       q    Type
REMARK                         _______ _______ _______ _____ _____    ______ ____
ROOT
ATOM      1  O   HOH     1      30.585  46.907  50.659  0.00  0.00    +0.000 OA
ENDROOT
TORSDOF 0
REMARK  Name = ../refined-set-2016/1fo0/1fo0_pocket.pdb
REMARK  423 active torsions:
REMARK  status: ('A' for Active; 'I' for Inactive)
REMARK    1  A    between atoms: _1  and  _3
REMARK    2  A    between atoms: _3  and  _4
REMARK    3  A    between atoms: _3  and  _6
REMARK    4  A    between atoms: _6  and  _7
REMARK    5  A    between atoms: _10  and  _12
REMARK    6  A    between atoms: _12  and  _13
REMARK    7  A    between atoms: _12  and  _15
REMARK    8  A    between atoms: _15  and  _16
REMARK    9  A    between atoms: _16  and  _17
REMARK   10  A    between atoms: _17  and  _18
REMARK   11  A    between atoms: _27  and  _29
REMARK   12  A    between atoms: _29  and  _30
REMARK   13  A    between atoms: _29  and  _32
REMARK   14  A    between atoms: _32  and  _33
REMARK   15  A    between atoms: _38  and  _39
REMARK   16  A    between atoms: _41  and  _43
REMARK   17  A    between atoms: _43  and  _44
REMARK   18  A    between atoms: _43  and  _46
REMARK   19  A    between atoms: _46  and  _47
REMARK   20  A    between atoms: _53  and  _55
REMARK   21  A    between atoms: _55  and  _56
REMARK   22  A    between atoms: _55  and  _58
REMARK   23  A    between atoms: _61  and  _63
REMARK   24  A    between atoms: _63  and  _64
REMARK   25  A    between atoms: _63  and  _66
REMARK   26  A    between atoms: _66  and  _67
REMARK   27  A    between atoms: _70  and  _72
REMARK   28  A    between atoms: _72  and  _73
REMARK   29  A    between atoms: _72  and  _75
REMARK   30  A    between atoms: _75  and  _76
REMARK   31  A    between atoms: _81  and  _82
REMARK   32  A    between atoms: _84  and  _86
REMARK   33  A    between atoms: _86  and  _87
REMARK   34  A    between atoms: _86  and  _89
REMARK   35  A    between atoms: _89  and  _90
REMARK   36  A    between atoms: _90  and  _91
REMARK   37  A    between atoms: _93  and  _95
REMARK   38  A    between atoms: _95  and  _96
REMARK   39  A    between atoms: _95  and  _98
REMARK   40  A    between atoms: _98  and  _99
REMARK   41  A    between atoms: _99  and  _100
REMARK   42  A    between atoms: _103  and  _105
REMARK   43  A    between atoms: _105  and  _106
REMARK   44  A    between atoms: _105  and  _108
REMARK   45  A    between atoms: _111  and  _113
REMARK   46  A    between atoms: _113  and  _114
REMARK   47  A    between atoms: _116  and  _118
REMARK   48  A    between atoms: _118  and  _119
REMARK   49  A    between atoms: _118  and  _121
REMARK   50  A    between atoms: _121  and  _122
REMARK   51  A    between atoms: _128  and  _130
REMARK   52  A    between atoms: _130  and  _131
REMARK   53  A    between atoms: _130  and  _133
REMARK   54  A    between atoms: _136  and  _138
REMARK   55  A    between atoms: _138  and  _139
REMARK   56  A    between atoms: _138  and  _141
REMARK   57  A    between atoms: _141  and  _142
REMARK   58  A    between atoms: _148  and  _150
REMARK   59  A    between atoms: _150  and  _151
REMARK   60  A    between atoms: _150  and  _153
REMARK   61  A    between atoms: _153  and  _154
REMARK   62  A    between atoms: _159  and  _160
REMARK   63  A    between atoms: _162  and  _164
REMARK   64  A    between atoms: _164  and  _165
REMARK   65  A    between atoms: _164  and  _167
REMARK   66  A    between atoms: _167  and  _168
REMARK   67  A    between atoms: _168  and  _169
REMARK   68  A    between atoms: _171  and  _173
REMARK   69  A    between atoms: _173  and  _174
REMARK   70  A    between atoms: _173  and  _176
REMARK   71  A    between atoms: _176  and  _177
REMARK   72  A    between atoms: _177  and  _178
REMARK   73  A    between atoms: _181  and  _183
REMARK   74  A    between atoms: _183  and  _184
REMARK   75  A    between atoms: _183  and  _186
REMARK   76  A    between atoms: _186  and  _187
REMARK   77  A    between atoms: _192  and  _193
REMARK   78  A    between atoms: _195  and  _197
REMARK   79  A    between atoms: _197  and  _198
REMARK   80  A    between atoms: _197  and  _200
REMARK   81  A    between atoms: _200  and  _201
REMARK   82  A    between atoms: _201  and  _202
REMARK   83  A    between atoms: _202  and  _203
REMARK   84  A    between atoms: _212  and  _214
REMARK   85  A    between atoms: _214  and  _215
REMARK   86  A    between atoms: _214  and  _217
REMARK   87  A    between atoms: _217  and  _218
REMARK   88  A    between atoms: _218  and  _219
REMARK   89  A    between atoms: _222  and  _224
REMARK   90  A    between atoms: _224  and  _225
REMARK   91  A    between atoms: _224  and  _227
REMARK   92  A    between atoms: _227  and  _228
REMARK   93  A    between atoms: _228  and  _229
REMARK   94  A    between atoms: _234  and  _236
REMARK   95  A    between atoms: _236  and  _237
REMARK   96  A    between atoms: _236  and  _239
REMARK   97  A    between atoms: _239  and  _240
REMARK   98  A    between atoms: _240  and  _241
REMARK   99  A    between atoms: _241  and  _242
REMARK  100  A    between atoms: _242  and  _243
REMARK  101  A    between atoms: _247  and  _249
REMARK  102  A    between atoms: _249  and  _250
REMARK  103  A    between atoms: _253  and  _255
REMARK  104  A    between atoms: _255  and  _256
REMARK  105  A    between atoms: _255  and  _258
REMARK  106  A    between atoms: _258  and  _259
REMARK  107  A    between atoms: _259  and  _260
REMARK  108  A    between atoms: _260  and  _261
REMARK  109  A    between atoms: _261  and  _262
REMARK  110  A    between atoms: _266  and  _268
REMARK  111  A    between atoms: _268  and  _269
REMARK  112  A    between atoms: _271  and  _273
REMARK  113  A    between atoms: _273  and  _274
REMARK  114  A    between atoms: _273  and  _276
REMARK  115  A    between atoms: _276  and  _277
REMARK  116  A    between atoms: _282  and  _284
REMARK  117  A    between atoms: _284  and  _285
REMARK  118  A    between atoms: _284  and  _287
REMARK  119  A    between atoms: _287  and  _288
REMARK  120  A    between atoms: _288  and  _289
REMARK  121  A    between atoms: _292  and  _294
REMARK  122  A    between atoms: _294  and  _295
REMARK  123  A    between atoms: _294  and  _297
REMARK  124  A    between atoms: _297  and  _298
REMARK  125  A    between atoms: _298  and  _299
REMARK  126  A    between atoms: _304  and  _306
REMARK  127  A    between atoms: _306  and  _307
REMARK  128  A    between atoms: _306  and  _309
REMARK  129  A    between atoms: _309  and  _310
REMARK  130  A    between atoms: _312  and  _314
REMARK  131  A    between atoms: _314  and  _315
REMARK  132  A    between atoms: _314  and  _317
REMARK  133  A    between atoms: _317  and  _318
REMARK  134  A    between atoms: _324  and  _326
REMARK  135  A    between atoms: _326  and  _327
REMARK  136  A    between atoms: _326  and  _329
REMARK  137  A    between atoms: _329  and  _330
REMARK  138  A    between atoms: _330  and  _331
REMARK  139  A    between atoms: _331  and  _332
REMARK  140  A    between atoms: _341  and  _343
REMARK  141  A    between atoms: _343  and  _344
REMARK  142  A    between atoms: _343  and  _346
REMARK  143  A    between atoms: _349  and  _351
REMARK  144  A    between atoms: _351  and  _352
REMARK  145  A    between atoms: _351  and  _354
REMARK  146  A    between atoms: _354  and  _355
REMARK  147  A    between atoms: _358  and  _360
REMARK  148  A    between atoms: _360  and  _361
REMARK  149  A    between atoms: _360  and  _363
REMARK  150  A    between atoms: _363  and  _364
REMARK  151  A    between atoms: _367  and  _369
REMARK  152  A    between atoms: _369  and  _370
REMARK  153  A    between atoms: _369  and  _372
REMARK  154  A    between atoms: _372  and  _373
REMARK  155  A    between atoms: _373  and  _374
REMARK  156  A    between atoms: _374  and  _375
REMARK  157  A    between atoms: _384  and  _386
REMARK  158  A    between atoms: _386  and  _387
REMARK  159  A    between atoms: _386  and  _389
REMARK  160  A    between atoms: _389  and  _390
REMARK  161  A    between atoms: _393  and  _395
REMARK  162  A    between atoms: _395  and  _396
REMARK  163  A    between atoms: _395  and  _398
REMARK  164  A    between atoms: _398  and  _399
REMARK  165  A    between atoms: _402  and  _404
REMARK  166  A    between atoms: _404  and  _405
REMARK  167  A    between atoms: _404  and  _407
REMARK  168  A    between atoms: _407  and  _408
REMARK  169  A    between atoms: _411  and  _413
REMARK  170  A    between atoms: _413  and  _414
REMARK  171  A    between atoms: _413  and  _416
REMARK  172  A    between atoms: _416  and  _417
REMARK  173  A    between atoms: _422  and  _423
REMARK  174  A    between atoms: _425  and  _427
REMARK  175  A    between atoms: _427  and  _428
REMARK  176  A    between atoms: _427  and  _430
REMARK  177  A    between atoms: _430  and  _431
REMARK  178  A    between atoms: _436  and  _437
REMARK  179  A    between atoms: _439  and  _441
REMARK  180  A    between atoms: _441  and  _442
REMARK  181  A    between atoms: _441  and  _444
REMARK  182  A    between atoms: _444  and  _445
REMARK  183  A    between atoms: _448  and  _450
REMARK  184  A    between atoms: _450  and  _451
REMARK  185  A    between atoms: _450  and  _453
REMARK  186  A    between atoms: _456  and  _458
REMARK  187  A    between atoms: _458  and  _459
REMARK  188  A    between atoms: _458  and  _461
REMARK  189  A    between atoms: _461  and  _462
REMARK  190  A    between atoms: _465  and  _467
REMARK  191  A    between atoms: _467  and  _468
REMARK  192  A    between atoms: _467  and  _470
REMARK  193  A    between atoms: _470  and  _471
REMARK  194  A    between atoms: _473  and  _475
REMARK  195  A    between atoms: _475  and  _476
REMARK  196  A    between atoms: _478  and  _480
REMARK  197  A    between atoms: _480  and  _481
REMARK  198  A    between atoms: _480  and  _483
REMARK  199  A    between atoms: _483  and  _484
REMARK  200  A    between atoms: _489  and  _490
REMARK  201  A    between atoms: _492  and  _494
REMARK  202  A    between atoms: _494  and  _495
REMARK  203  A    between atoms: _494  and  _497
REMARK  204  A    between atoms: _497  and  _498
REMARK  205  A    between atoms: _498  and  _499
REMARK  206  A    between atoms: _504  and  _506
REMARK  207  A    between atoms: _506  and  _507
REMARK  208  A    between atoms: _506  and  _509
REMARK  209  A    between atoms: _509  and  _510
REMARK  210  A    between atoms: _510  and  _511
REMARK  211  A    between atoms: _516  and  _518
REMARK  212  A    between atoms: _518  and  _519
REMARK  213  A    between atoms: _518  and  _521
REMARK  214  A    between atoms: _521  and  _522
REMARK  215  A    between atoms: _527  and  _528
REMARK  216  A    between atoms: _530  and  _532
REMARK  217  A    between atoms: _532  and  _533
REMARK  218  A    between atoms: _532  and  _535
REMARK  219  A    between atoms: _535  and  _536
REMARK  220  A    between atoms: _541  and  _542
REMARK  221  A    between atoms: _544  and  _546
REMARK  222  A    between atoms: _546  and  _547
REMARK  223  A    between atoms: _546  and  _549
REMARK  224  A    between atoms: _549  and  _550
REMARK  225  A    between atoms: _555  and  _556
REMARK  226  A    between atoms: _558  and  _560
REMARK  227  A    between atoms: _560  and  _561
REMARK  228  A    between atoms: _560  and  _563
REMARK  229  A    between atoms: _563  and  _564
REMARK  230  A    between atoms: _567  and  _569
REMARK  231  A    between atoms: _569  and  _570
REMARK  232  A    between atoms: _569  and  _572
REMARK  233  A    between atoms: _572  and  _573
REMARK  234  A    between atoms: _583  and  _585
REMARK  235  A    between atoms: _585  and  _586
REMARK  236  A    between atoms: _589  and  _591
REMARK  237  A    between atoms: _591  and  _592
REMARK  238  A    between atoms: _595  and  _597
REMARK  239  A    between atoms: _597  and  _598
REMARK  240  A    between atoms: _597  and  _600
REMARK  241  A    between atoms: _600  and  _601
REMARK  242  A    between atoms: _604  and  _606
REMARK  243  A    between atoms: _606  and  _607
REMARK  244  A    between atoms: _606  and  _609
REMARK  245  A    between atoms: _609  and  _610
REMARK  246  A    between atoms: _613  and  _615
REMARK  247  A    between atoms: _615  and  _616
REMARK  248  A    between atoms: _615  and  _618
REMARK  249  A    between atoms: _618  and  _619
REMARK  250  A    between atoms: _622  and  _624
REMARK  251  A    between atoms: _624  and  _625
REMARK  252  A    between atoms: _624  and  _627
REMARK  253  A    between atoms: _627  and  _628
REMARK  254  A    between atoms: _628  and  _629
REMARK  255  A    between atoms: _629  and  _630
REMARK  256  A    between atoms: _630  and  _631
REMARK  257  A    between atoms: _635  and  _637
REMARK  258  A    between atoms: _637  and  _638
REMARK  259  A    between atoms: _637  and  _640
REMARK  260  A    between atoms: _640  and  _641
REMARK  261  A    between atoms: _646  and  _648
REMARK  262  A    between atoms: _648  and  _649
REMARK  263  A    between atoms: _648  and  _651
REMARK  264  A    between atoms: _651  and  _652
REMARK  265  A    between atoms: _652  and  _653
REMARK  266  A    between atoms: _653  and  _654
REMARK  267  A    between atoms: _654  and  _655
REMARK  268  A    between atoms: _659  and  _661
REMARK  269  A    between atoms: _661  and  _662
REMARK  270  A    between atoms: _661  and  _664
REMARK  271  A    between atoms: _664  and  _665
REMARK  272  A    between atoms: _675  and  _677
REMARK  273  A    between atoms: _677  and  _678
REMARK  274  A    between atoms: _681  and  _683
REMARK  275  A    between atoms: _683  and  _684
REMARK  276  A    between atoms: _686  and  _688
REMARK  277  A    between atoms: _688  and  _689
REMARK  278  A    between atoms: _688  and  _691
REMARK  279  A    between atoms: _691  and  _692
REMARK  280  A    between atoms: _692  and  _693
REMARK  281  A    between atoms: _696  and  _698
REMARK  282  A    between atoms: _698  and  _699
REMARK  283  A    between atoms: _702  and  _704
REMARK  284  A    between atoms: _704  and  _705
REMARK  285  A    between atoms: _704  and  _707
REMARK  286  A    between atoms: _707  and  _708
REMARK  287  A    between atoms: _708  and  _709
REMARK  288  A    between atoms: _712  and  _714
REMARK  289  A    between atoms: _714  and  _715
REMARK  290  A    between atoms: _714  and  _717
REMARK  291  A    between atoms: _717  and  _718
REMARK  292  A    between atoms: _718  and  _719
REMARK  293  A    between atoms: _719  and  _720
REMARK  294  A    between atoms: _729  and  _731
REMARK  295  A    between atoms: _731  and  _732
REMARK  296  A    between atoms: _731  and  _734
REMARK  297  A    between atoms: _734  and  _735
REMARK  298  A    between atoms: _738  and  _740
REMARK  299  A    between atoms: _740  and  _741
REMARK  300  A    between atoms: _740  and  _743
REMARK  301  A    between atoms: _743  and  _744
REMARK  302  A    between atoms: _744  and  _745
REMARK  303  A    between atoms: _745  and  _746
REMARK  304  A    between atoms: _755  and  _757
REMARK  305  A    between atoms: _757  and  _758
REMARK  306  A    between atoms: _761  and  _763
REMARK  307  A    between atoms: _763  and  _764
REMARK  308  A    between atoms: _763  and  _766
REMARK  309  A    between atoms: _766  and  _767
REMARK  310  A    between atoms: _772  and  _773
REMARK  311  A    between atoms: _775  and  _777
REMARK  312  A    between atoms: _777  and  _778
REMARK  313  A    between atoms: _777  and  _780
REMARK  314  A    between atoms: _780  and  _781
REMARK  315  A    between atoms: _784  and  _786
REMARK  316  A    between atoms: _786  and  _787
REMARK  317  A    between atoms: _786  and  _789
REMARK  318  A    between atoms: _789  and  _790
REMARK  319  A    between atoms: _793  and  _795
REMARK  320  A    between atoms: _795  and  _796
REMARK  321  A    between atoms: _795  and  _798
REMARK  322  A    between atoms: _800  and  _802
REMARK  323  A    between atoms: _802  and  _803
REMARK  324  A    between atoms: _802  and  _805
REMARK  325  A    between atoms: _808  and  _810
REMARK  326  A    between atoms: _810  and  _811
REMARK  327  A    between atoms: _810  and  _813
REMARK  328  A    between atoms: _813  and  _814
REMARK  329  A    between atoms: _814  and  _815
REMARK  330  A    between atoms: _818  and  _820
REMARK  331  A    between atoms: _820  and  _821
REMARK  332  A    between atoms: _820  and  _823
REMARK  333  A    between atoms: _823  and  _824
REMARK  334  A    between atoms: _834  and  _836
REMARK  335  A    between atoms: _836  and  _837
REMARK  336  A    between atoms: _836  and  _839
REMARK  337  A    between atoms: _839  and  _840
REMARK  338  A    between atoms: _843  and  _845
REMARK  339  A    between atoms: _845  and  _846
REMARK  340  A    between atoms: _845  and  _848
REMARK  341  A    between atoms: _848  and  _849
REMARK  342  A    between atoms: _849  and  _850
REMARK  343  A    between atoms: _850  and  _851
REMARK  344  A    between atoms: _860  and  _862
REMARK  345  A    between atoms: _862  and  _863
REMARK  346  A    between atoms: _862  and  _865
REMARK  347  A    between atoms: _865  and  _866
REMARK  348  A    between atoms: _871  and  _872
REMARK  349  A    between atoms: _874  and  _876
REMARK  350  A    between atoms: _876  and  _877
REMARK  351  A    between atoms: _876  and  _879
REMARK  352  A    between atoms: _879  and  _880
REMARK  353  A    between atoms: _880  and  _881
REMARK  354  A    between atoms: _886  and  _888
REMARK  355  A    between atoms: _888  and  _889
REMARK  356  A    between atoms: _888  and  _891
REMARK  357  A    between atoms: _891  and  _892
REMARK  358  A    between atoms: _895  and  _897
REMARK  359  A    between atoms: _897  and  _898
REMARK  360  A    between atoms: _897  and  _900
REMARK  361  A    between atoms: _900  and  _901
REMARK  362  A    between atoms: _903  and  _905
REMARK  363  A    between atoms: _905  and  _906
REMARK  364  A    between atoms: _905  and  _908
REMARK  365  A    between atoms: _908  and  _909
REMARK  366  A    between atoms: _911  and  _913
REMARK  367  A    between atoms: _913  and  _914
REMARK  368  A    between atoms: _913  and  _916
REMARK  369  A    between atoms: _916  and  _917
REMARK  370  A    between atoms: _923  and  _925
REMARK  371  A    between atoms: _925  and  _926
REMARK  372  A    between atoms: _925  and  _928
REMARK  373  A    between atoms: _928  and  _929
REMARK  374  A    between atoms: _929  and  _930
REMARK  375  A    between atoms: _930  and  _931
REMARK  376  A    between atoms: _940  and  _942
REMARK  377  A    between atoms: _942  and  _943
REMARK  378  A    between atoms: _942  and  _945
REMARK  379  A    between atoms: _945  and  _946
REMARK  380  A    between atoms: _946  and  _947
REMARK  381  A    between atoms: _947  and  _948
REMARK  382  A    between atoms: _957  and  _959
REMARK  383  A    between atoms: _959  and  _960
REMARK  384  A    between atoms: _962  and  _964
REMARK  385  A    between atoms: _964  and  _965
REMARK  386  A    between atoms: _964  and  _967
REMARK  387  A    between atoms: _967  and  _968
REMARK  388  A    between atoms: _974  and  _975
REMARK  389  A    between atoms: _980  and  _982
REMARK  390  A    between atoms: _982  and  _983
REMARK  391  A    between atoms: _982  and  _985
REMARK  392  A    between atoms: _985  and  _986
REMARK  393  A    between atoms: _996  and  _998
REMARK  394  A    between atoms: _998  and  _999
REMARK  395  A    between atoms: _998  and  _1001
REMARK  396  A    between atoms: _1001  and  _1002
REMARK  397  A    between atoms: _1002  and  _1003
REMARK  398  A    between atoms: _1003  and  _1004
REMARK  399  A    between atoms: _1013  and  _1015
REMARK  400  A    between atoms: _1015  and  _1016
REMARK  401  A    between atoms: _1015  and  _1018
REMARK  402  A    between atoms: _1018  and  _1019
REMARK  403  A    between atoms: _1021  and  _1023
REMARK  404  A    between atoms: _1023  and  _1024
REMARK  405  A    between atoms: _1027  and  _1029
REMARK  406  A    between atoms: _1029  and  _1030
REMARK  407  A    between atoms: _1029  and  _1032
REMARK  408  A    between atoms: _1032  and  _1033
REMARK  409  A    between atoms: _1036  and  _1038
REMARK  410  A    between atoms: _1038  and  _1039
REMARK  411  A    between atoms: _1038  and  _1041
REMARK  412  A    between atoms: _1041  and  _1042
REMARK  413  A    between atoms: _1042  and  _1043
REMARK  414  A    between atoms: _1043  and  _1044
REMARK  415  A    between atoms: _1053  and  _1055
REMARK  416  A    between atoms: _1055  and  _1056
REMARK  417  A    between atoms: _1055  and  _1058
REMARK  418  A    between atoms: _1061  and  _1063
REMARK  419  A    between atoms: _1063  and  _1064
REMARK  420  A    between atoms: _1066  and  _1068
REMARK  421  A    between atoms: _1068  and  _1069
REMARK  422  A    between atoms: _1068  and  _1071
REMARK  423  A    between atoms: _1071  and  _1072
REMARK                            x       y       z     vdW  Elec       q    Type
REMARK                         _______ _______ _______ _____ _____    ______ ____
ROOT
ATOM      1  O   HOH     1       3.636  28.640  57.826  0.00  0.00    +0.000 OA
ENDROOT
TORSDOF 0
REMARK  Name = ../refined-set-2016/1fo0/1fo0_pocket.pdb
REMARK  423 active torsions:
REMARK  status: ('A' for Active; 'I' for Inactive)
REMARK    1  A    between atoms: _1  and  _3
REMARK    2  A    between atoms: _3  and  _4
REMARK    3  A    between atoms: _3  and  _6
REMARK    4  A    between atoms: _6  and  _7
REMARK    5  A    between atoms: _10  and  _12
REMARK    6  A    between atoms: _12  and  _13
REMARK    7  A    between atoms: _12  and  _15
REMARK    8  A    between atoms: _15  and  _16
REMARK    9  A    between atoms: _16  and  _17
REMARK   10  A    between atoms: _17  and  _18
REMARK   11  A    between atoms: _27  and  _29
REMARK   12  A    between atoms: _29  and  _30
REMARK   13  A    between atoms: _29  and  _32
REMARK   14  A    between atoms: _32  and  _33
REMARK   15  A    between atoms: _38  and  _39
REMARK   16  A    between atoms: _41  and  _43
REMARK   17  A    between atoms: _43  and  _44
REMARK   18  A    between atoms: _43  and  _46
REMARK   19  A    between atoms: _46  and  _47
REMARK   20  A    between atoms: _53  and  _55
REMARK   21  A    between atoms: _55  and  _56
REMARK   22  A    between atoms: _55  and  _58
REMARK   23  A    between atoms: _61  and  _63
REMARK   24  A    between atoms: _63  and  _64
REMARK   25  A    between atoms: _63  and  _66
REMARK   26  A    between atoms: _66  and  _67
REMARK   27  A    between atoms: _70  and  _72
REMARK   28  A    between atoms: _72  and  _73
REMARK   29  A    between atoms: _72  and  _75
REMARK   30  A    between atoms: _75  and  _76
REMARK   31  A    between atoms: _81  and  _82
REMARK   32  A    between atoms: _84  and  _86
REMARK   33  A    between atoms: _86  and  _87
REMARK   34  A    between atoms: _86  and  _89
REMARK   35  A    between atoms: _89  and  _90
REMARK   36  A    between atoms: _90  and  _91
REMARK   37  A    between atoms: _93  and  _95
REMARK   38  A    between atoms: _95  and  _96
REMARK   39  A    between atoms: _95  and  _98
REMARK   40  A    between atoms: _98  and  _99
REMARK   41  A    between atoms: _99  and  _100
REMARK   42  A    between atoms: _103  and  _105
REMARK   43  A    between atoms: _105  and  _106
REMARK   44  A    between atoms: _105  and  _108
REMARK   45  A    between atoms: _111  and  _113
REMARK   46  A    between atoms: _113  and  _114
REMARK   47  A    between atoms: _116  and  _118
REMARK   48  A    between atoms: _118  and  _119
REMARK   49  A    between atoms: _118  and  _121
REMARK   50  A    between atoms: _121  and  _122
REMARK   51  A    between atoms: _128  and  _130
REMARK   52  A    between atoms: _130  and  _131
REMARK   53  A    between atoms: _130  and  _133
REMARK   54  A    between atoms: _136  and  _138
REMARK   55  A    between atoms: _138  and  _139
REMARK   56  A    between atoms: _138  and  _141
REMARK   57  A    between atoms: _141  and  _142
REMARK   58  A    between atoms: _148  and  _150
REMARK   59  A    between atoms: _150  and  _151
REMARK   60  A    between atoms: _150  and  _153
REMARK   61  A    between atoms: _153  and  _154
REMARK   62  A    between atoms: _159  and  _160
REMARK   63  A    between atoms: _162  and  _164
REMARK   64  A    between atoms: _164  and  _165
REMARK   65  A    between atoms: _164  and  _167
REMARK   66  A    between atoms: _167  and  _168
REMARK   67  A    between atoms: _168  and  _169
REMARK   68  A    between atoms: _171  and  _173
REMARK   69  A    between atoms: _173  and  _174
REMARK   70  A    between atoms: _173  and  _176
REMARK   71  A    between atoms: _176  and  _177
REMARK   72  A    between atoms: _177  and  _178
REMARK   73  A    between atoms: _181  and  _183
REMARK   74  A    between atoms: _183  and  _184
REMARK   75  A    between atoms: _183  and  _186
REMARK   76  A    between atoms: _186  and  _187
REMARK   77  A    between atoms: _192  and  _193
REMARK   78  A    between atoms: _195  and  _197
REMARK   79  A    between atoms: _197  and  _198
REMARK   80  A    between atoms: _197  and  _200
REMARK   81  A    between atoms: _200  and  _201
REMARK   82  A    between atoms: _201  and  _202
REMARK   83  A    between atoms: _202  and  _203
REMARK   84  A    between atoms: _212  and  _214
REMARK   85  A    between atoms: _214  and  _215
REMARK   86  A    between atoms: _214  and  _217
REMARK   87  A    between atoms: _217  and  _218
REMARK   88  A    between atoms: _218  and  _219
REMARK   89  A    between atoms: _222  and  _224
REMARK   90  A    between atoms: _224  and  _225
REMARK   91  A    between atoms: _224  and  _227
REMARK   92  A    between atoms: _227  and  _228
REMARK   93  A    between atoms: _228  and  _229
REMARK   94  A    between atoms: _234  and  _236
REMARK   95  A    between atoms: _236  and  _237
REMARK   96  A    between atoms: _236  and  _239
REMARK   97  A    between atoms: _239  and  _240
REMARK   98  A    between atoms: _240  and  _241
REMARK   99  A    between atoms: _241  and  _242
REMARK  100  A    between atoms: _242  and  _243
REMARK  101  A    between atoms: _247  and  _249
REMARK  102  A    between atoms: _249  and  _250
REMARK  103  A    between atoms: _253  and  _255
REMARK  104  A    between atoms: _255  and  _256
REMARK  105  A    between atoms: _255  and  _258
REMARK  106  A    between atoms: _258  and  _259
REMARK  107  A    between atoms: _259  and  _260
REMARK  108  A    between atoms: _260  and  _261
REMARK  109  A    between atoms: _261  and  _262
REMARK  110  A    between atoms: _266  and  _268
REMARK  111  A    between atoms: _268  and  _269
REMARK  112  A    between atoms: _271  and  _273
REMARK  113  A    between atoms: _273  and  _274
REMARK  114  A    between atoms: _273  and  _276
REMARK  115  A    between atoms: _276  and  _277
REMARK  116  A    between atoms: _282  and  _284
REMARK  117  A    between atoms: _284  and  _285
REMARK  118  A    between atoms: _284  and  _287
REMARK  119  A    between atoms: _287  and  _288
REMARK  120  A    between atoms: _288  and  _289
REMARK  121  A    between atoms: _292  and  _294
REMARK  122  A    between atoms: _294  and  _295
REMARK  123  A    between atoms: _294  and  _297
REMARK  124  A    between atoms: _297  and  _298
REMARK  125  A    between atoms: _298  and  _299
REMARK  126  A    between atoms: _304  and  _306
REMARK  127  A    between atoms: _306  and  _307
REMARK  128  A    between atoms: _306  and  _309
REMARK  129  A    between atoms: _309  and  _310
REMARK  130  A    between atoms: _312  and  _314
REMARK  131  A    between atoms: _314  and  _315
REMARK  132  A    between atoms: _314  and  _317
REMARK  133  A    between atoms: _317  and  _318
REMARK  134  A    between atoms: _324  and  _326
REMARK  135  A    between atoms: _326  and  _327
REMARK  136  A    between atoms: _326  and  _329
REMARK  137  A    between atoms: _329  and  _330
REMARK  138  A    between atoms: _330  and  _331
REMARK  139  A    between atoms: _331  and  _332
REMARK  140  A    between atoms: _341  and  _343
REMARK  141  A    between atoms: _343  and  _344
REMARK  142  A    between atoms: _343  and  _346
REMARK  143  A    between atoms: _349  and  _351
REMARK  144  A    between atoms: _351  and  _352
REMARK  145  A    between atoms: _351  and  _354
REMARK  146  A    between atoms: _354  and  _355
REMARK  147  A    between atoms: _358  and  _360
REMARK  148  A    between atoms: _360  and  _361
REMARK  149  A    between atoms: _360  and  _363
REMARK  150  A    between atoms: _363  and  _364
REMARK  151  A    between atoms: _367  and  _369
REMARK  152  A    between atoms: _369  and  _370
REMARK  153  A    between atoms: _369  and  _372
REMARK  154  A    between atoms: _372  and  _373
REMARK  155  A    between atoms: _373  and  _374
REMARK  156  A    between atoms: _374  and  _375
REMARK  157  A    between atoms: _384  and  _386
REMARK  158  A    between atoms: _386  and  _387
REMARK  159  A    between atoms: _386  and  _389
REMARK  160  A    between atoms: _389  and  _390
REMARK  161  A    between atoms: _393  and  _395
REMARK  162  A    between atoms: _395  and  _396
REMARK  163  A    between atoms: _395  and  _398
REMARK  164  A    between atoms: _398  and  _399
REMARK  165  A    between atoms: _402  and  _404
REMARK  166  A    between atoms: _404  and  _405
REMARK  167  A    between atoms: _404  and  _407
REMARK  168  A    between atoms: _407  and  _408
REMARK  169  A    between atoms: _411  and  _413
REMARK  170  A    between atoms: _413  and  _414
REMARK  171  A    between atoms: _413  and  _416
REMARK  172  A    between atoms: _416  and  _417
REMARK  173  A    between atoms: _422  and  _423
REMARK  174  A    between atoms: _425  and  _427
REMARK  175  A    between atoms: _427  and  _428
REMARK  176  A    between atoms: _427  and  _430
REMARK  177  A    between atoms: _430  and  _431
REMARK  178  A    between atoms: _436  and  _437
REMARK  179  A    between atoms: _439  and  _441
REMARK  180  A    between atoms: _441  and  _442
REMARK  181  A    between atoms: _441  and  _444
REMARK  182  A    between atoms: _444  and  _445
REMARK  183  A    between atoms: _448  and  _450
REMARK  184  A    between atoms: _450  and  _451
REMARK  185  A    between atoms: _450  and  _453
REMARK  186  A    between atoms: _456  and  _458
REMARK  187  A    between atoms: _458  and  _459
REMARK  188  A    between atoms: _458  and  _461
REMARK  189  A    between atoms: _461  and  _462
REMARK  190  A    between atoms: _465  and  _467
REMARK  191  A    between atoms: _467  and  _468
REMARK  192  A    between atoms: _467  and  _470
REMARK  193  A    between atoms: _470  and  _471
REMARK  194  A    between atoms: _473  and  _475
REMARK  195  A    between atoms: _475  and  _476
REMARK  196  A    between atoms: _478  and  _480
REMARK  197  A    between atoms: _480  and  _481
REMARK  198  A    between atoms: _480  and  _483
REMARK  199  A    between atoms: _483  and  _484
REMARK  200  A    between atoms: _489  and  _490
REMARK  201  A    between atoms: _492  and  _494
REMARK  202  A    between atoms: _494  and  _495
REMARK  203  A    between atoms: _494  and  _497
REMARK  204  A    between atoms: _497  and  _498
REMARK  205  A    between atoms: _498  and  _499
REMARK  206  A    between atoms: _504  and  _506
REMARK  207  A    between atoms: _506  and  _507
REMARK  208  A    between atoms: _506  and  _509
REMARK  209  A    between atoms: _509  and  _510
REMARK  210  A    between atoms: _510  and  _511
REMARK  211  A    between atoms: _516  and  _518
REMARK  212  A    between atoms: _518  and  _519
REMARK  213  A    between atoms: _518  and  _521
REMARK  214  A    between atoms: _521  and  _522
REMARK  215  A    between atoms: _527  and  _528
REMARK  216  A    between atoms: _530  and  _532
REMARK  217  A    between atoms: _532  and  _533
REMARK  218  A    between atoms: _532  and  _535
REMARK  219  A    between atoms: _535  and  _536
REMARK  220  A    between atoms: _541  and  _542
REMARK  221  A    between atoms: _544  and  _546
REMARK  222  A    between atoms: _546  and  _547
REMARK  223  A    between atoms: _546  and  _549
REMARK  224  A    between atoms: _549  and  _550
REMARK  225  A    between atoms: _555  and  _556
REMARK  226  A    between atoms: _558  and  _560
REMARK  227  A    between atoms: _560  and  _561
REMARK  228  A    between atoms: _560  and  _563
REMARK  229  A    between atoms: _563  and  _564
REMARK  230  A    between atoms: _567  and  _569
REMARK  231  A    between atoms: _569  and  _570
REMARK  232  A    between atoms: _569  and  _572
REMARK  233  A    between atoms: _572  and  _573
REMARK  234  A    between atoms: _583  and  _585
REMARK  235  A    between atoms: _585  and  _586
REMARK  236  A    between atoms: _589  and  _591
REMARK  237  A    between atoms: _591  and  _592
REMARK  238  A    between atoms: _595  and  _597
REMARK  239  A    between atoms: _597  and  _598
REMARK  240  A    between atoms: _597  and  _600
REMARK  241  A    between atoms: _600  and  _601
REMARK  242  A    between atoms: _604  and  _606
REMARK  243  A    between atoms: _606  and  _607
REMARK  244  A    between atoms: _606  and  _609
REMARK  245  A    between atoms: _609  and  _610
REMARK  246  A    between atoms: _613  and  _615
REMARK  247  A    between atoms: _615  and  _616
REMARK  248  A    between atoms: _615  and  _618
REMARK  249  A    between atoms: _618  and  _619
REMARK  250  A    between atoms: _622  and  _624
REMARK  251  A    between atoms: _624  and  _625
REMARK  252  A    between atoms: _624  and  _627
REMARK  253  A    between atoms: _627  and  _628
REMARK  254  A    between atoms: _628  and  _629
REMARK  255  A    between atoms: _629  and  _630
REMARK  256  A    between atoms: _630  and  _631
REMARK  257  A    between atoms: _635  and  _637
REMARK  258  A    between atoms: _637  and  _638
REMARK  259  A    between atoms: _637  and  _640
REMARK  260  A    between atoms: _640  and  _641
REMARK  261  A    between atoms: _646  and  _648
REMARK  262  A    between atoms: _648  and  _649
REMARK  263  A    between atoms: _648  and  _651
REMARK  264  A    between atoms: _651  and  _652
REMARK  265  A    between atoms: _652  and  _653
REMARK  266  A    between atoms: _653  and  _654
REMARK  267  A    between atoms: _654  and  _655
REMARK  268  A    between atoms: _659  and  _661
REMARK  269  A    between atoms: _661  and  _662
REMARK  270  A    between atoms: _661  and  _664
REMARK  271  A    between atoms: _664  and  _665
REMARK  272  A    between atoms: _675  and  _677
REMARK  273  A    between atoms: _677  and  _678
REMARK  274  A    between atoms: _681  and  _683
REMARK  275  A    between atoms: _683  and  _684
REMARK  276  A    between atoms: _686  and  _688
REMARK  277  A    between atoms: _688  and  _689
REMARK  278  A    between atoms: _688  and  _691
REMARK  279  A    between atoms: _691  and  _692
REMARK  280  A    between atoms: _692  and  _693
REMARK  281  A    between atoms: _696  and  _698
REMARK  282  A    between atoms: _698  and  _699
REMARK  283  A    between atoms: _702  and  _704
REMARK  284  A    between atoms: _704  and  _705
REMARK  285  A    between atoms: _704  and  _707
REMARK  286  A    between atoms: _707  and  _708
REMARK  287  A    between atoms: _708  and  _709
REMARK  288  A    between atoms: _712  and  _714
REMARK  289  A    between atoms: _714  and  _715
REMARK  290  A    between atoms: _714  and  _717
REMARK  291  A    between atoms: _717  and  _718
REMARK  292  A    between atoms: _718  and  _719
REMARK  293  A    between atoms: _719  and  _720
REMARK  294  A    between atoms: _729  and  _731
REMARK  295  A    between atoms: _731  and  _732
REMARK  296  A    between atoms: _731  and  _734
REMARK  297  A    between atoms: _734  and  _735
REMARK  298  A    between atoms: _738  and  _740
REMARK  299  A    between atoms: _740  and  _741
REMARK  300  A    between atoms: _740  and  _743
REMARK  301  A    between atoms: _743  and  _744
REMARK  302  A    between atoms: _744  and  _745
REMARK  303  A    between atoms: _745  and  _746
REMARK  304  A    between atoms: _755  and  _757
REMARK  305  A    between atoms: _757  and  _758
REMARK  306  A    between atoms: _761  and  _763
REMARK  307  A    between atoms: _763  and  _764
REMARK  308  A    between atoms: _763  and  _766
REMARK  309  A    between atoms: _766  and  _767
REMARK  310  A    between atoms: _772  and  _773
REMARK  311  A    between atoms: _775  and  _777
REMARK  312  A    between atoms: _777  and  _778
REMARK  313  A    between atoms: _777  and  _780
REMARK  314  A    between atoms: _780  and  _781
REMARK  315  A    between atoms: _784  and  _786
REMARK  316  A    between atoms: _786  and  _787
REMARK  317  A    between atoms: _786  and  _789
REMARK  318  A    between atoms: _789  and  _790
REMARK  319  A    between atoms: _793  and  _795
REMARK  320  A    between atoms: _795  and  _796
REMARK  321  A    between atoms: _795  and  _798
REMARK  322  A    between atoms: _800  and  _802
REMARK  323  A    between atoms: _802  and  _803
REMARK  324  A    between atoms: _802  and  _805
REMARK  325  A    between atoms: _808  and  _810
REMARK  326  A    between atoms: _810  and  _811
REMARK  327  A    between atoms: _810  and  _813
REMARK  328  A    between atoms: _813  and  _814
REMARK  329  A    between atoms: _814  and  _815
REMARK  330  A    between atoms: _818  and  _820
REMARK  331  A    between atoms: _820  and  _821
REMARK  332  A    between atoms: _820  and  _823
REMARK  333  A    between atoms: _823  and  _824
REMARK  334  A    between atoms: _834  and  _836
REMARK  335  A    between atoms: _836  and  _837
REMARK  336  A    between atoms: _836  and  _839
REMARK  337  A    between atoms: _839  and  _840
REMARK  338  A    between atoms: _843  and  _845
REMARK  339  A    between atoms: _845  and  _846
REMARK  340  A    between atoms: _845  and  _848
REMARK  341  A    between atoms: _848  and  _849
REMARK  342  A    between atoms: _849  and  _850
REMARK  343  A    between atoms: _850  and  _851
REMARK  344  A    between atoms: _860  and  _862
REMARK  345  A    between atoms: _862  and  _863
REMARK  346  A    between atoms: _862  and  _865
REMARK  347  A    between atoms: _865  and  _866
REMARK  348  A    between atoms: _871  and  _872
REMARK  349  A    between atoms: _874  and  _876
REMARK  350  A    between atoms: _876  and  _877
REMARK  351  A    between atoms: _876  and  _879
REMARK  352  A    between atoms: _879  and  _880
REMARK  353  A    between atoms: _880  and  _881
REMARK  354  A    between atoms: _886  and  _888
REMARK  355  A    between atoms: _888  and  _889
REMARK  356  A    between atoms: _888  and  _891
REMARK  357  A    between atoms: _891  and  _892
REMARK  358  A    between atoms: _895  and  _897
REMARK  359  A    between atoms: _897  and  _898
REMARK  360  A    between atoms: _897  and  _900
REMARK  361  A    between atoms: _900  and  _901
REMARK  362  A    between atoms: _903  and  _905
REMARK  363  A    between atoms: _905  and  _906
REMARK  364  A    between atoms: _905  and  _908
REMARK  365  A    between atoms: _908  and  _909
REMARK  366  A    between atoms: _911  and  _913
REMARK  367  A    between atoms: _913  and  _914
REMARK  368  A    between atoms: _913  and  _916
REMARK  369  A    between atoms: _916  and  _917
REMARK  370  A    between atoms: _923  and  _925
REMARK  371  A    between atoms: _925  and  _926
REMARK  372  A    between atoms: _925  and  _928
REMARK  373  A    between atoms: _928  and  _929
REMARK  374  A    between atoms: _929  and  _930
REMARK  375  A    between atoms: _930  and  _931
REMARK  376  A    between atoms: _940  and  _942
REMARK  377  A    between atoms: _942  and  _943
REMARK  378  A    between atoms: _942  and  _945
REMARK  379  A    between atoms: _945  and  _946
REMARK  380  A    between atoms: _946  and  _947
REMARK  381  A    between atoms: _947  and  _948
REMARK  382  A    between atoms: _957  and  _959
REMARK  383  A    between atoms: _959  and  _960
REMARK  384  A    between atoms: _962  and  _964
REMARK  385  A    between atoms: _964  and  _965
REMARK  386  A    between atoms: _964  and  _967
REMARK  387  A    between atoms: _967  and  _968
REMARK  388  A    between atoms: _974  and  _975
REMARK  389  A    between atoms: _980  and  _982
REMARK  390  A    between atoms: _982  and  _983
REMARK  391  A    between atoms: _982  and  _985
REMARK  392  A    between atoms: _985  and  _986
REMARK  393  A    between atoms: _996  and  _998
REMARK  394  A    between atoms: _998  and  _999
REMARK  395  A    between atoms: _998  and  _1001
REMARK  396  A    between atoms: _1001  and  _1002
REMARK  397  A    between atoms: _1002  and  _1003
REMARK  398  A    between atoms: _1003  and  _1004
REMARK  399  A    between atoms: _1013  and  _1015
REMARK  400  A    between atoms: _1015  and  _1016
REMARK  401  A    between atoms: _1015  and  _1018
REMARK  402  A    between atoms: _1018  and  _1019
REMARK  403  A    between atoms: _1021  and  _1023
REMARK  404  A    between atoms: _1023  and  _1024
REMARK  405  A    between atoms: _1027  and  _1029
REMARK  406  A    between atoms: _1029  and  _1030
REMARK  407  A    between atoms: _1029  and  _1032
REMARK  408  A    between atoms: _1032  and  _1033
REMARK  409  A    between atoms: _1036  and  _1038
REMARK  410  A    between atoms: _1038  and  _1039
REMARK  411  A    between atoms: _1038  and  _1041
REMARK  412  A    between atoms: _1041  and  _1042
REMARK  413  A    between atoms: _1042  and  _1043
REMARK  414  A    between atoms: _1043  and  _1044
REMARK  415  A    between atoms: _1053  and  _1055
REMARK  416  A    between atoms: _1055  and  _1056
REMARK  417  A    between atoms: _1055  and  _1058
REMARK  418  A    between atoms: _1061  and  _1063
REMARK  419  A    between atoms: _1063  and  _1064
REMARK  420  A    between atoms: _1066  and  _1068
REMARK  421  A    between atoms: _1068  and  _1069
REMARK  422  A    between atoms: _1068  and  _1071
REMARK  423  A    between atoms: _1071  and  _1072
REMARK                            x       y       z     vdW  Elec       q    Type
REMARK                         _______ _______ _______ _____ _____    ______ ____
ROOT
ATOM      1  O   HOH     1      11.880  24.421  53.619  0.00  0.00    +0.000 OA
ENDROOT
TORSDOF 0
REMARK  Name = ../refined-set-2016/1fo0/1fo0_pocket.pdb
REMARK  423 active torsions:
REMARK  status: ('A' for Active; 'I' for Inactive)
REMARK    1  A    between atoms: _1  and  _3
REMARK    2  A    between atoms: _3  and  _4
REMARK    3  A    between atoms: _3  and  _6
REMARK    4  A    between atoms: _6  and  _7
REMARK    5  A    between atoms: _10  and  _12
REMARK    6  A    between atoms: _12  and  _13
REMARK    7  A    between atoms: _12  and  _15
REMARK    8  A    between atoms: _15  and  _16
REMARK    9  A    between atoms: _16  and  _17
REMARK   10  A    between atoms: _17  and  _18
REMARK   11  A    between atoms: _27  and  _29
REMARK   12  A    between atoms: _29  and  _30
REMARK   13  A    between atoms: _29  and  _32
REMARK   14  A    between atoms: _32  and  _33
REMARK   15  A    between atoms: _38  and  _39
REMARK   16  A    between atoms: _41  and  _43
REMARK   17  A    between atoms: _43  and  _44
REMARK   18  A    between atoms: _43  and  _46
REMARK   19  A    between atoms: _46  and  _47
REMARK   20  A    between atoms: _53  and  _55
REMARK   21  A    between atoms: _55  and  _56
REMARK   22  A    between atoms: _55  and  _58
REMARK   23  A    between atoms: _61  and  _63
REMARK   24  A    between atoms: _63  and  _64
REMARK   25  A    between atoms: _63  and  _66
REMARK   26  A    between atoms: _66  and  _67
REMARK   27  A    between atoms: _70  and  _72
REMARK   28  A    between atoms: _72  and  _73
REMARK   29  A    between atoms: _72  and  _75
REMARK   30  A    between atoms: _75  and  _76
REMARK   31  A    between atoms: _81  and  _82
REMARK   32  A    between atoms: _84  and  _86
REMARK   33  A    between atoms: _86  and  _87
REMARK   34  A    between atoms: _86  and  _89
REMARK   35  A    between atoms: _89  and  _90
REMARK   36  A    between atoms: _90  and  _91
REMARK   37  A    between atoms: _93  and  _95
REMARK   38  A    between atoms: _95  and  _96
REMARK   39  A    between atoms: _95  and  _98
REMARK   40  A    between atoms: _98  and  _99
REMARK   41  A    between atoms: _99  and  _100
REMARK   42  A    between atoms: _103  and  _105
REMARK   43  A    between atoms: _105  and  _106
REMARK   44  A    between atoms: _105  and  _108
REMARK   45  A    between atoms: _111  and  _113
REMARK   46  A    between atoms: _113  and  _114
REMARK   47  A    between atoms: _116  and  _118
REMARK   48  A    between atoms: _118  and  _119
REMARK   49  A    between atoms: _118  and  _121
REMARK   50  A    between atoms: _121  and  _122
REMARK   51  A    between atoms: _128  and  _130
REMARK   52  A    between atoms: _130  and  _131
REMARK   53  A    between atoms: _130  and  _133
REMARK   54  A    between atoms: _136  and  _138
REMARK   55  A    between atoms: _138  and  _139
REMARK   56  A    between atoms: _138  and  _141
REMARK   57  A    between atoms: _141  and  _142
REMARK   58  A    between atoms: _148  and  _150
REMARK   59  A    between atoms: _150  and  _151
REMARK   60  A    between atoms: _150  and  _153
REMARK   61  A    between atoms: _153  and  _154
REMARK   62  A    between atoms: _159  and  _160
REMARK   63  A    between atoms: _162  and  _164
REMARK   64  A    between atoms: _164  and  _165
REMARK   65  A    between atoms: _164  and  _167
REMARK   66  A    between atoms: _167  and  _168
REMARK   67  A    between atoms: _168  and  _169
REMARK   68  A    between atoms: _171  and  _173
REMARK   69  A    between atoms: _173  and  _174
REMARK   70  A    between atoms: _173  and  _176
REMARK   71  A    between atoms: _176  and  _177
REMARK   72  A    between atoms: _177  and  _178
REMARK   73  A    between atoms: _181  and  _183
REMARK   74  A    between atoms: _183  and  _184
REMARK   75  A    between atoms: _183  and  _186
REMARK   76  A    between atoms: _186  and  _187
REMARK   77  A    between atoms: _192  and  _193
REMARK   78  A    between atoms: _195  and  _197
REMARK   79  A    between atoms: _197  and  _198
REMARK   80  A    between atoms: _197  and  _200
REMARK   81  A    between atoms: _200  and  _201
REMARK   82  A    between atoms: _201  and  _202
REMARK   83  A    between atoms: _202  and  _203
REMARK   84  A    between atoms: _212  and  _214
REMARK   85  A    between atoms: _214  and  _215
REMARK   86  A    between atoms: _214  and  _217
REMARK   87  A    between atoms: _217  and  _218
REMARK   88  A    between atoms: _218  and  _219
REMARK   89  A    between atoms: _222  and  _224
REMARK   90  A    between atoms: _224  and  _225
REMARK   91  A    between atoms: _224  and  _227
REMARK   92  A    between atoms: _227  and  _228
REMARK   93  A    between atoms: _228  and  _229
REMARK   94  A    between atoms: _234  and  _236
REMARK   95  A    between atoms: _236  and  _237
REMARK   96  A    between atoms: _236  and  _239
REMARK   97  A    between atoms: _239  and  _240
REMARK   98  A    between atoms: _240  and  _241
REMARK   99  A    between atoms: _241  and  _242
REMARK  100  A    between atoms: _242  and  _243
REMARK  101  A    between atoms: _247  and  _249
REMARK  102  A    between atoms: _249  and  _250
REMARK  103  A    between atoms: _253  and  _255
REMARK  104  A    between atoms: _255  and  _256
REMARK  105  A    between atoms: _255  and  _258
REMARK  106  A    between atoms: _258  and  _259
REMARK  107  A    between atoms: _259  and  _260
REMARK  108  A    between atoms: _260  and  _261
REMARK  109  A    between atoms: _261  and  _262
REMARK  110  A    between atoms: _266  and  _268
REMARK  111  A    between atoms: _268  and  _269
REMARK  112  A    between atoms: _271  and  _273
REMARK  113  A    between atoms: _273  and  _274
REMARK  114  A    between atoms: _273  and  _276
REMARK  115  A    between atoms: _276  and  _277
REMARK  116  A    between atoms: _282  and  _284
REMARK  117  A    between atoms: _284  and  _285
REMARK  118  A    between atoms: _284  and  _287
REMARK  119  A    between atoms: _287  and  _288
REMARK  120  A    between atoms: _288  and  _289
REMARK  121  A    between atoms: _292  and  _294
REMARK  122  A    between atoms: _294  and  _295
REMARK  123  A    between atoms: _294  and  _297
REMARK  124  A    between atoms: _297  and  _298
REMARK  125  A    between atoms: _298  and  _299
REMARK  126  A    between atoms: _304  and  _306
REMARK  127  A    between atoms: _306  and  _307
REMARK  128  A    between atoms: _306  and  _309
REMARK  129  A    between atoms: _309  and  _310
REMARK  130  A    between atoms: _312  and  _314
REMARK  131  A    between atoms: _314  and  _315
REMARK  132  A    between atoms: _314  and  _317
REMARK  133  A    between atoms: _317  and  _318
REMARK  134  A    between atoms: _324  and  _326
REMARK  135  A    between atoms: _326  and  _327
REMARK  136  A    between atoms: _326  and  _329
REMARK  137  A    between atoms: _329  and  _330
REMARK  138  A    between atoms: _330  and  _331
REMARK  139  A    between atoms: _331  and  _332
REMARK  140  A    between atoms: _341  and  _343
REMARK  141  A    between atoms: _343  and  _344
REMARK  142  A    between atoms: _343  and  _346
REMARK  143  A    between atoms: _349  and  _351
REMARK  144  A    between atoms: _351  and  _352
REMARK  145  A    between atoms: _351  and  _354
REMARK  146  A    between atoms: _354  and  _355
REMARK  147  A    between atoms: _358  and  _360
REMARK  148  A    between atoms: _360  and  _361
REMARK  149  A    between atoms: _360  and  _363
REMARK  150  A    between atoms: _363  and  _364
REMARK  151  A    between atoms: _367  and  _369
REMARK  152  A    between atoms: _369  and  _370
REMARK  153  A    between atoms: _369  and  _372
REMARK  154  A    between atoms: _372  and  _373
REMARK  155  A    between atoms: _373  and  _374
REMARK  156  A    between atoms: _374  and  _375
REMARK  157  A    between atoms: _384  and  _386
REMARK  158  A    between atoms: _386  and  _387
REMARK  159  A    between atoms: _386  and  _389
REMARK  160  A    between atoms: _389  and  _390
REMARK  161  A    between atoms: _393  and  _395
REMARK  162  A    between atoms: _395  and  _396
REMARK  163  A    between atoms: _395  and  _398
REMARK  164  A    between atoms: _398  and  _399
REMARK  165  A    between atoms: _402  and  _404
REMARK  166  A    between atoms: _404  and  _405
REMARK  167  A    between atoms: _404  and  _407
REMARK  168  A    between atoms: _407  and  _408
REMARK  169  A    between atoms: _411  and  _413
REMARK  170  A    between atoms: _413  and  _414
REMARK  171  A    between atoms: _413  and  _416
REMARK  172  A    between atoms: _416  and  _417
REMARK  173  A    between atoms: _422  and  _423
REMARK  174  A    between atoms: _425  and  _427
REMARK  175  A    between atoms: _427  and  _428
REMARK  176  A    between atoms: _427  and  _430
REMARK  177  A    between atoms: _430  and  _431
REMARK  178  A    between atoms: _436  and  _437
REMARK  179  A    between atoms: _439  and  _441
REMARK  180  A    between atoms: _441  and  _442
REMARK  181  A    between atoms: _441  and  _444
REMARK  182  A    between atoms: _444  and  _445
REMARK  183  A    between atoms: _448  and  _450
REMARK  184  A    between atoms: _450  and  _451
REMARK  185  A    between atoms: _450  and  _453
REMARK  186  A    between atoms: _456  and  _458
REMARK  187  A    between atoms: _458  and  _459
REMARK  188  A    between atoms: _458  and  _461
REMARK  189  A    between atoms: _461  and  _462
REMARK  190  A    between atoms: _465  and  _467
REMARK  191  A    between atoms: _467  and  _468
REMARK  192  A    between atoms: _467  and  _470
REMARK  193  A    between atoms: _470  and  _471
REMARK  194  A    between atoms: _473  and  _475
REMARK  195  A    between atoms: _475  and  _476
REMARK  196  A    between atoms: _478  and  _480
REMARK  197  A    between atoms: _480  and  _481
REMARK  198  A    between atoms: _480  and  _483
REMARK  199  A    between atoms: _483  and  _484
REMARK  200  A    between atoms: _489  and  _490
REMARK  201  A    between atoms: _492  and  _494
REMARK  202  A    between atoms: _494  and  _495
REMARK  203  A    between atoms: _494  and  _497
REMARK  204  A    between atoms: _497  and  _498
REMARK  205  A    between atoms: _498  and  _499
REMARK  206  A    between atoms: _504  and  _506
REMARK  207  A    between atoms: _506  and  _507
REMARK  208  A    between atoms: _506  and  _509
REMARK  209  A    between atoms: _509  and  _510
REMARK  210  A    between atoms: _510  and  _511
REMARK  211  A    between atoms: _516  and  _518
REMARK  212  A    between atoms: _518  and  _519
REMARK  213  A    between atoms: _518  and  _521
REMARK  214  A    between atoms: _521  and  _522
REMARK  215  A    between atoms: _527  and  _528
REMARK  216  A    between atoms: _530  and  _532
REMARK  217  A    between atoms: _532  and  _533
REMARK  218  A    between atoms: _532  and  _535
REMARK  219  A    between atoms: _535  and  _536
REMARK  220  A    between atoms: _541  and  _542
REMARK  221  A    between atoms: _544  and  _546
REMARK  222  A    between atoms: _546  and  _547
REMARK  223  A    between atoms: _546  and  _549
REMARK  224  A    between atoms: _549  and  _550
REMARK  225  A    between atoms: _555  and  _556
REMARK  226  A    between atoms: _558  and  _560
REMARK  227  A    between atoms: _560  and  _561
REMARK  228  A    between atoms: _560  and  _563
REMARK  229  A    between atoms: _563  and  _564
REMARK  230  A    between atoms: _567  and  _569
REMARK  231  A    between atoms: _569  and  _570
REMARK  232  A    between atoms: _569  and  _572
REMARK  233  A    between atoms: _572  and  _573
REMARK  234  A    between atoms: _583  and  _585
REMARK  235  A    between atoms: _585  and  _586
REMARK  236  A    between atoms: _589  and  _591
REMARK  237  A    between atoms: _591  and  _592
REMARK  238  A    between atoms: _595  and  _597
REMARK  239  A    between atoms: _597  and  _598
REMARK  240  A    between atoms: _597  and  _600
REMARK  241  A    between atoms: _600  and  _601
REMARK  242  A    between atoms: _604  and  _606
REMARK  243  A    between atoms: _606  and  _607
REMARK  244  A    between atoms: _606  and  _609
REMARK  245  A    between atoms: _609  and  _610
REMARK  246  A    between atoms: _613  and  _615
REMARK  247  A    between atoms: _615  and  _616
REMARK  248  A    between atoms: _615  and  _618
REMARK  249  A    between atoms: _618  and  _619
REMARK  250  A    between atoms: _622  and  _624
REMARK  251  A    between atoms: _624  and  _625
REMARK  252  A    between atoms: _624  and  _627
REMARK  253  A    between atoms: _627  and  _628
REMARK  254  A    between atoms: _628  and  _629
REMARK  255  A    between atoms: _629  and  _630
REMARK  256  A    between atoms: _630  and  _631
REMARK  257  A    between atoms: _635  and  _637
REMARK  258  A    between atoms: _637  and  _638
REMARK  259  A    between atoms: _637  and  _640
REMARK  260  A    between atoms: _640  and  _641
REMARK  261  A    between atoms: _646  and  _648
REMARK  262  A    between atoms: _648  and  _649
REMARK  263  A    between atoms: _648  and  _651
REMARK  264  A    between atoms: _651  and  _652
REMARK  265  A    between atoms: _652  and  _653
REMARK  266  A    between atoms: _653  and  _654
REMARK  267  A    between atoms: _654  and  _655
REMARK  268  A    between atoms: _659  and  _661
REMARK  269  A    between atoms: _661  and  _662
REMARK  270  A    between atoms: _661  and  _664
REMARK  271  A    between atoms: _664  and  _665
REMARK  272  A    between atoms: _675  and  _677
REMARK  273  A    between atoms: _677  and  _678
REMARK  274  A    between atoms: _681  and  _683
REMARK  275  A    between atoms: _683  and  _684
REMARK  276  A    between atoms: _686  and  _688
REMARK  277  A    between atoms: _688  and  _689
REMARK  278  A    between atoms: _688  and  _691
REMARK  279  A    between atoms: _691  and  _692
REMARK  280  A    between atoms: _692  and  _693
REMARK  281  A    between atoms: _696  and  _698
REMARK  282  A    between atoms: _698  and  _699
REMARK  283  A    between atoms: _702  and  _704
REMARK  284  A    between atoms: _704  and  _705
REMARK  285  A    between atoms: _704  and  _707
REMARK  286  A    between atoms: _707  and  _708
REMARK  287  A    between atoms: _708  and  _709
REMARK  288  A    between atoms: _712  and  _714
REMARK  289  A    between atoms: _714  and  _715
REMARK  290  A    between atoms: _714  and  _717
REMARK  291  A    between atoms: _717  and  _718
REMARK  292  A    between atoms: _718  and  _719
REMARK  293  A    between atoms: _719  and  _720
REMARK  294  A    between atoms: _729  and  _731
REMARK  295  A    between atoms: _731  and  _732
REMARK  296  A    between atoms: _731  and  _734
REMARK  297  A    between atoms: _734  and  _735
REMARK  298  A    between atoms: _738  and  _740
REMARK  299  A    between atoms: _740  and  _741
REMARK  300  A    between atoms: _740  and  _743
REMARK  301  A    between atoms: _743  and  _744
REMARK  302  A    between atoms: _744  and  _745
REMARK  303  A    between atoms: _745  and  _746
REMARK  304  A    between atoms: _755  and  _757
REMARK  305  A    between atoms: _757  and  _758
REMARK  306  A    between atoms: _761  and  _763
REMARK  307  A    between atoms: _763  and  _764
REMARK  308  A    between atoms: _763  and  _766
REMARK  309  A    between atoms: _766  and  _767
REMARK  310  A    between atoms: _772  and  _773
REMARK  311  A    between atoms: _775  and  _777
REMARK  312  A    between atoms: _777  and  _778
REMARK  313  A    between atoms: _777  and  _780
REMARK  314  A    between atoms: _780  and  _781
REMARK  315  A    between atoms: _784  and  _786
REMARK  316  A    between atoms: _786  and  _787
REMARK  317  A    between atoms: _786  and  _789
REMARK  318  A    between atoms: _789  and  _790
REMARK  319  A    between atoms: _793  and  _795
REMARK  320  A    between atoms: _795  and  _796
REMARK  321  A    between atoms: _795  and  _798
REMARK  322  A    between atoms: _800  and  _802
REMARK  323  A    between atoms: _802  and  _803
REMARK  324  A    between atoms: _802  and  _805
REMARK  325  A    between atoms: _808  and  _810
REMARK  326  A    between atoms: _810  and  _811
REMARK  327  A    between atoms: _810  and  _813
REMARK  328  A    between atoms: _813  and  _814
REMARK  329  A    between atoms: _814  and  _815
REMARK  330  A    between atoms: _818  and  _820
REMARK  331  A    between atoms: _820  and  _821
REMARK  332  A    between atoms: _820  and  _823
REMARK  333  A    between atoms: _823  and  _824
REMARK  334  A    between atoms: _834  and  _836
REMARK  335  A    between atoms: _836  and  _837
REMARK  336  A    between atoms: _836  and  _839
REMARK  337  A    between atoms: _839  and  _840
REMARK  338  A    between atoms: _843  and  _845
REMARK  339  A    between atoms: _845  and  _846
REMARK  340  A    between atoms: _845  and  _848
REMARK  341  A    between atoms: _848  and  _849
REMARK  342  A    between atoms: _849  and  _850
REMARK  343  A    between atoms: _850  and  _851
REMARK  344  A    between atoms: _860  and  _862
REMARK  345  A    between atoms: _862  and  _863
REMARK  346  A    between atoms: _862  and  _865
REMARK  347  A    between atoms: _865  and  _866
REMARK  348  A    between atoms: _871  and  _872
REMARK  349  A    between atoms: _874  and  _876
REMARK  350  A    between atoms: _876  and  _877
REMARK  351  A    between atoms: _876  and  _879
REMARK  352  A    between atoms: _879  and  _880
REMARK  353  A    between atoms: _880  and  _881
REMARK  354  A    between atoms: _886  and  _888
REMARK  355  A    between atoms: _888  and  _889
REMARK  356  A    between atoms: _888  and  _891
REMARK  357  A    between atoms: _891  and  _892
REMARK  358  A    between atoms: _895  and  _897
REMARK  359  A    between atoms: _897  and  _898
REMARK  360  A    between atoms: _897  and  _900
REMARK  361  A    between atoms: _900  and  _901
REMARK  362  A    between atoms: _903  and  _905
REMARK  363  A    between atoms: _905  and  _906
REMARK  364  A    between atoms: _905  and  _908
REMARK  365  A    between atoms: _908  and  _909
REMARK  366  A    between atoms: _911  and  _913
REMARK  367  A    between atoms: _913  and  _914
REMARK  368  A    between atoms: _913  and  _916
REMARK  369  A    between atoms: _916  and  _917
REMARK  370  A    between atoms: _923  and  _925
REMARK  371  A    between atoms: _925  and  _926
REMARK  372  A    between atoms: _925  and  _928
REMARK  373  A    between atoms: _928  and  _929
REMARK  374  A    between atoms: _929  and  _930
REMARK  375  A    between atoms: _930  and  _931
REMARK  376  A    between atoms: _940  and  _942
REMARK  377  A    between atoms: _942  and  _943
REMARK  378  A    between atoms: _942  and  _945
REMARK  379  A    between atoms: _945  and  _946
REMARK  380  A    between atoms: _946  and  _947
REMARK  381  A    between atoms: _947  and  _948
REMARK  382  A    between atoms: _957  and  _959
REMARK  383  A    between atoms: _959  and  _960
REMARK  384  A    between atoms: _962  and  _964
REMARK  385  A    between atoms: _964  and  _965
REMARK  386  A    between atoms: _964  and  _967
REMARK  387  A    between atoms: _967  and  _968
REMARK  388  A    between atoms: _974  and  _975
REMARK  389  A    between atoms: _980  and  _982
REMARK  390  A    between atoms: _982  and  _983
REMARK  391  A    between atoms: _982  and  _985
REMARK  392  A    between atoms: _985  and  _986
REMARK  393  A    between atoms: _996  and  _998
REMARK  394  A    between atoms: _998  and  _999
REMARK  395  A    between atoms: _998  and  _1001
REMARK  396  A    between atoms: _1001  and  _1002
REMARK  397  A    between atoms: _1002  and  _1003
REMARK  398  A    between atoms: _1003  and  _1004
REMARK  399  A    between atoms: _1013  and  _1015
REMARK  400  A    between atoms: _1015  and  _1016
REMARK  401  A    between atoms: _1015  and  _1018
REMARK  402  A    between atoms: _1018  and  _1019
REMARK  403  A    between atoms: _1021  and  _1023
REMARK  404  A    between atoms: _1023  and  _1024
REMARK  405  A    between atoms: _1027  and  _1029
REMARK  406  A    between atoms: _1029  and  _1030
REMARK  407  A    between atoms: _1029  and  _1032
REMARK  408  A    between atoms: _1032  and  _1033
REMARK  409  A    between atoms: _1036  and  _1038
REMARK  410  A    between atoms: _1038  and  _1039
REMARK  411  A    between atoms: _1038  and  _1041
REMARK  412  A    between atoms: _1041  and  _1042
REMARK  413  A    between atoms: _1042  and  _1043
REMARK  414  A    between atoms: _1043  and  _1044
REMARK  415  A    between atoms: _1053  and  _1055
REMARK  416  A    between atoms: _1055  and  _1056
REMARK  417  A    between atoms: _1055  and  _1058
REMARK  418  A    between atoms: _1061  and  _1063
REMARK  419  A    between atoms: _1063  and  _1064
REMARK  420  A    between atoms: _1066  and  _1068
REMARK  421  A    between atoms: _1068  and  _1069
REMARK  422  A    between atoms: _1068  and  _1071
REMARK  423  A    between atoms: _1071  and  _1072
REMARK                            x       y       z     vdW  Elec       q    Type
REMARK                         _______ _______ _______ _____ _____    ______ ____
ROOT
ATOM      1  O   HOH     1       9.361  24.753  51.478  0.00  0.00    +0.000 OA
ENDROOT
TORSDOF 0
REMARK  Name = ../refined-set-2016/1fo0/1fo0_pocket.pdb
REMARK  423 active torsions:
REMARK  status: ('A' for Active; 'I' for Inactive)
REMARK    1  A    between atoms: _1  and  _3
REMARK    2  A    between atoms: _3  and  _4
REMARK    3  A    between atoms: _3  and  _6
REMARK    4  A    between atoms: _6  and  _7
REMARK    5  A    between atoms: _10  and  _12
REMARK    6  A    between atoms: _12  and  _13
REMARK    7  A    between atoms: _12  and  _15
REMARK    8  A    between atoms: _15  and  _16
REMARK    9  A    between atoms: _16  and  _17
REMARK   10  A    between atoms: _17  and  _18
REMARK   11  A    between atoms: _27  and  _29
REMARK   12  A    between atoms: _29  and  _30
REMARK   13  A    between atoms: _29  and  _32
REMARK   14  A    between atoms: _32  and  _33
REMARK   15  A    between atoms: _38  and  _39
REMARK   16  A    between atoms: _41  and  _43
REMARK   17  A    between atoms: _43  and  _44
REMARK   18  A    between atoms: _43  and  _46
REMARK   19  A    between atoms: _46  and  _47
REMARK   20  A    between atoms: _53  and  _55
REMARK   21  A    between atoms: _55  and  _56
REMARK   22  A    between atoms: _55  and  _58
REMARK   23  A    between atoms: _61  and  _63
REMARK   24  A    between atoms: _63  and  _64
REMARK   25  A    between atoms: _63  and  _66
REMARK   26  A    between atoms: _66  and  _67
REMARK   27  A    between atoms: _70  and  _72
REMARK   28  A    between atoms: _72  and  _73
REMARK   29  A    between atoms: _72  and  _75
REMARK   30  A    between atoms: _75  and  _76
REMARK   31  A    between atoms: _81  and  _82
REMARK   32  A    between atoms: _84  and  _86
REMARK   33  A    between atoms: _86  and  _87
REMARK   34  A    between atoms: _86  and  _89
REMARK   35  A    between atoms: _89  and  _90
REMARK   36  A    between atoms: _90  and  _91
REMARK   37  A    between atoms: _93  and  _95
REMARK   38  A    between atoms: _95  and  _96
REMARK   39  A    between atoms: _95  and  _98
REMARK   40  A    between atoms: _98  and  _99
REMARK   41  A    between atoms: _99  and  _100
REMARK   42  A    between atoms: _103  and  _105
REMARK   43  A    between atoms: _105  and  _106
REMARK   44  A    between atoms: _105  and  _108
REMARK   45  A    between atoms: _111  and  _113
REMARK   46  A    between atoms: _113  and  _114
REMARK   47  A    between atoms: _116  and  _118
REMARK   48  A    between atoms: _118  and  _119
REMARK   49  A    between atoms: _118  and  _121
REMARK   50  A    between atoms: _121  and  _122
REMARK   51  A    between atoms: _128  and  _130
REMARK   52  A    between atoms: _130  and  _131
REMARK   53  A    between atoms: _130  and  _133
REMARK   54  A    between atoms: _136  and  _138
REMARK   55  A    between atoms: _138  and  _139
REMARK   56  A    between atoms: _138  and  _141
REMARK   57  A    between atoms: _141  and  _142
REMARK   58  A    between atoms: _148  and  _150
REMARK   59  A    between atoms: _150  and  _151
REMARK   60  A    between atoms: _150  and  _153
REMARK   61  A    between atoms: _153  and  _154
REMARK   62  A    between atoms: _159  and  _160
REMARK   63  A    between atoms: _162  and  _164
REMARK   64  A    between atoms: _164  and  _165
REMARK   65  A    between atoms: _164  and  _167
REMARK   66  A    between atoms: _167  and  _168
REMARK   67  A    between atoms: _168  and  _169
REMARK   68  A    between atoms: _171  and  _173
REMARK   69  A    between atoms: _173  and  _174
REMARK   70  A    between atoms: _173  and  _176
REMARK   71  A    between atoms: _176  and  _177
REMARK   72  A    between atoms: _177  and  _178
REMARK   73  A    between atoms: _181  and  _183
REMARK   74  A    between atoms: _183  and  _184
REMARK   75  A    between atoms: _183  and  _186
REMARK   76  A    between atoms: _186  and  _187
REMARK   77  A    between atoms: _192  and  _193
REMARK   78  A    between atoms: _195  and  _197
REMARK   79  A    between atoms: _197  and  _198
REMARK   80  A    between atoms: _197  and  _200
REMARK   81  A    between atoms: _200  and  _201
REMARK   82  A    between atoms: _201  and  _202
REMARK   83  A    between atoms: _202  and  _203
REMARK   84  A    between atoms: _212  and  _214
REMARK   85  A    between atoms: _214  and  _215
REMARK   86  A    between atoms: _214  and  _217
REMARK   87  A    between atoms: _217  and  _218
REMARK   88  A    between atoms: _218  and  _219
REMARK   89  A    between atoms: _222  and  _224
REMARK   90  A    between atoms: _224  and  _225
REMARK   91  A    between atoms: _224  and  _227
REMARK   92  A    between atoms: _227  and  _228
REMARK   93  A    between atoms: _228  and  _229
REMARK   94  A    between atoms: _234  and  _236
REMARK   95  A    between atoms: _236  and  _237
REMARK   96  A    between atoms: _236  and  _239
REMARK   97  A    between atoms: _239  and  _240
REMARK   98  A    between atoms: _240  and  _241
REMARK   99  A    between atoms: _241  and  _242
REMARK  100  A    between atoms: _242  and  _243
REMARK  101  A    between atoms: _247  and  _249
REMARK  102  A    between atoms: _249  and  _250
REMARK  103  A    between atoms: _253  and  _255
REMARK  104  A    between atoms: _255  and  _256
REMARK  105  A    between atoms: _255  and  _258
REMARK  106  A    between atoms: _258  and  _259
REMARK  107  A    between atoms: _259  and  _260
REMARK  108  A    between atoms: _260  and  _261
REMARK  109  A    between atoms: _261  and  _262
REMARK  110  A    between atoms: _266  and  _268
REMARK  111  A    between atoms: _268  and  _269
REMARK  112  A    between atoms: _271  and  _273
REMARK  113  A    between atoms: _273  and  _274
REMARK  114  A    between atoms: _273  and  _276
REMARK  115  A    between atoms: _276  and  _277
REMARK  116  A    between atoms: _282  and  _284
REMARK  117  A    between atoms: _284  and  _285
REMARK  118  A    between atoms: _284  and  _287
REMARK  119  A    between atoms: _287  and  _288
REMARK  120  A    between atoms: _288  and  _289
REMARK  121  A    between atoms: _292  and  _294
REMARK  122  A    between atoms: _294  and  _295
REMARK  123  A    between atoms: _294  and  _297
REMARK  124  A    between atoms: _297  and  _298
REMARK  125  A    between atoms: _298  and  _299
REMARK  126  A    between atoms: _304  and  _306
REMARK  127  A    between atoms: _306  and  _307
REMARK  128  A    between atoms: _306  and  _309
REMARK  129  A    between atoms: _309  and  _310
REMARK  130  A    between atoms: _312  and  _314
REMARK  131  A    between atoms: _314  and  _315
REMARK  132  A    between atoms: _314  and  _317
REMARK  133  A    between atoms: _317  and  _318
REMARK  134  A    between atoms: _324  and  _326
REMARK  135  A    between atoms: _326  and  _327
REMARK  136  A    between atoms: _326  and  _329
REMARK  137  A    between atoms: _329  and  _330
REMARK  138  A    between atoms: _330  and  _331
REMARK  139  A    between atoms: _331  and  _332
REMARK  140  A    between atoms: _341  and  _343
REMARK  141  A    between atoms: _343  and  _344
REMARK  142  A    between atoms: _343  and  _346
REMARK  143  A    between atoms: _349  and  _351
REMARK  144  A    between atoms: _351  and  _352
REMARK  145  A    between atoms: _351  and  _354
REMARK  146  A    between atoms: _354  and  _355
REMARK  147  A    between atoms: _358  and  _360
REMARK  148  A    between atoms: _360  and  _361
REMARK  149  A    between atoms: _360  and  _363
REMARK  150  A    between atoms: _363  and  _364
REMARK  151  A    between atoms: _367  and  _369
REMARK  152  A    between atoms: _369  and  _370
REMARK  153  A    between atoms: _369  and  _372
REMARK  154  A    between atoms: _372  and  _373
REMARK  155  A    between atoms: _373  and  _374
REMARK  156  A    between atoms: _374  and  _375
REMARK  157  A    between atoms: _384  and  _386
REMARK  158  A    between atoms: _386  and  _387
REMARK  159  A    between atoms: _386  and  _389
REMARK  160  A    between atoms: _389  and  _390
REMARK  161  A    between atoms: _393  and  _395
REMARK  162  A    between atoms: _395  and  _396
REMARK  163  A    between atoms: _395  and  _398
REMARK  164  A    between atoms: _398  and  _399
REMARK  165  A    between atoms: _402  and  _404
REMARK  166  A    between atoms: _404  and  _405
REMARK  167  A    between atoms: _404  and  _407
REMARK  168  A    between atoms: _407  and  _408
REMARK  169  A    between atoms: _411  and  _413
REMARK  170  A    between atoms: _413  and  _414
REMARK  171  A    between atoms: _413  and  _416
REMARK  172  A    between atoms: _416  and  _417
REMARK  173  A    between atoms: _422  and  _423
REMARK  174  A    between atoms: _425  and  _427
REMARK  175  A    between atoms: _427  and  _428
REMARK  176  A    between atoms: _427  and  _430
REMARK  177  A    between atoms: _430  and  _431
REMARK  178  A    between atoms: _436  and  _437
REMARK  179  A    between atoms: _439  and  _441
REMARK  180  A    between atoms: _441  and  _442
REMARK  181  A    between atoms: _441  and  _444
REMARK  182  A    between atoms: _444  and  _445
REMARK  183  A    between atoms: _448  and  _450
REMARK  184  A    between atoms: _450  and  _451
REMARK  185  A    between atoms: _450  and  _453
REMARK  186  A    between atoms: _456  and  _458
REMARK  187  A    between atoms: _458  and  _459
REMARK  188  A    between atoms: _458  and  _461
REMARK  189  A    between atoms: _461  and  _462
REMARK  190  A    between atoms: _465  and  _467
REMARK  191  A    between atoms: _467  and  _468
REMARK  192  A    between atoms: _467  and  _470
REMARK  193  A    between atoms: _470  and  _471
REMARK  194  A    between atoms: _473  and  _475
REMARK  195  A    between atoms: _475  and  _476
REMARK  196  A    between atoms: _478  and  _480
REMARK  197  A    between atoms: _480  and  _481
REMARK  198  A    between atoms: _480  and  _483
REMARK  199  A    between atoms: _483  and  _484
REMARK  200  A    between atoms: _489  and  _490
REMARK  201  A    between atoms: _492  and  _494
REMARK  202  A    between atoms: _494  and  _495
REMARK  203  A    between atoms: _494  and  _497
REMARK  204  A    between atoms: _497  and  _498
REMARK  205  A    between atoms: _498  and  _499
REMARK  206  A    between atoms: _504  and  _506
REMARK  207  A    between atoms: _506  and  _507
REMARK  208  A    between atoms: _506  and  _509
REMARK  209  A    between atoms: _509  and  _510
REMARK  210  A    between atoms: _510  and  _511
REMARK  211  A    between atoms: _516  and  _518
REMARK  212  A    between atoms: _518  and  _519
REMARK  213  A    between atoms: _518  and  _521
REMARK  214  A    between atoms: _521  and  _522
REMARK  215  A    between atoms: _527  and  _528
REMARK  216  A    between atoms: _530  and  _532
REMARK  217  A    between atoms: _532  and  _533
REMARK  218  A    between atoms: _532  and  _535
REMARK  219  A    between atoms: _535  and  _536
REMARK  220  A    between atoms: _541  and  _542
REMARK  221  A    between atoms: _544  and  _546
REMARK  222  A    between atoms: _546  and  _547
REMARK  223  A    between atoms: _546  and  _549
REMARK  224  A    between atoms: _549  and  _550
REMARK  225  A    between atoms: _555  and  _556
REMARK  226  A    between atoms: _558  and  _560
REMARK  227  A    between atoms: _560  and  _561
REMARK  228  A    between atoms: _560  and  _563
REMARK  229  A    between atoms: _563  and  _564
REMARK  230  A    between atoms: _567  and  _569
REMARK  231  A    between atoms: _569  and  _570
REMARK  232  A    between atoms: _569  and  _572
REMARK  233  A    between atoms: _572  and  _573
REMARK  234  A    between atoms: _583  and  _585
REMARK  235  A    between atoms: _585  and  _586
REMARK  236  A    between atoms: _589  and  _591
REMARK  237  A    between atoms: _591  and  _592
REMARK  238  A    between atoms: _595  and  _597
REMARK  239  A    between atoms: _597  and  _598
REMARK  240  A    between atoms: _597  and  _600
REMARK  241  A    between atoms: _600  and  _601
REMARK  242  A    between atoms: _604  and  _606
REMARK  243  A    between atoms: _606  and  _607
REMARK  244  A    between atoms: _606  and  _609
REMARK  245  A    between atoms: _609  and  _610
REMARK  246  A    between atoms: _613  and  _615
REMARK  247  A    between atoms: _615  and  _616
REMARK  248  A    between atoms: _615  and  _618
REMARK  249  A    between atoms: _618  and  _619
REMARK  250  A    between atoms: _622  and  _624
REMARK  251  A    between atoms: _624  and  _625
REMARK  252  A    between atoms: _624  and  _627
REMARK  253  A    between atoms: _627  and  _628
REMARK  254  A    between atoms: _628  and  _629
REMARK  255  A    between atoms: _629  and  _630
REMARK  256  A    between atoms: _630  and  _631
REMARK  257  A    between atoms: _635  and  _637
REMARK  258  A    between atoms: _637  and  _638
REMARK  259  A    between atoms: _637  and  _640
REMARK  260  A    between atoms: _640  and  _641
REMARK  261  A    between atoms: _646  and  _648
REMARK  262  A    between atoms: _648  and  _649
REMARK  263  A    between atoms: _648  and  _651
REMARK  264  A    between atoms: _651  and  _652
REMARK  265  A    between atoms: _652  and  _653
REMARK  266  A    between atoms: _653  and  _654
REMARK  267  A    between atoms: _654  and  _655
REMARK  268  A    between atoms: _659  and  _661
REMARK  269  A    between atoms: _661  and  _662
REMARK  270  A    between atoms: _661  and  _664
REMARK  271  A    between atoms: _664  and  _665
REMARK  272  A    between atoms: _675  and  _677
REMARK  273  A    between atoms: _677  and  _678
REMARK  274  A    between atoms: _681  and  _683
REMARK  275  A    between atoms: _683  and  _684
REMARK  276  A    between atoms: _686  and  _688
REMARK  277  A    between atoms: _688  and  _689
REMARK  278  A    between atoms: _688  and  _691
REMARK  279  A    between atoms: _691  and  _692
REMARK  280  A    between atoms: _692  and  _693
REMARK  281  A    between atoms: _696  and  _698
REMARK  282  A    between atoms: _698  and  _699
REMARK  283  A    between atoms: _702  and  _704
REMARK  284  A    between atoms: _704  and  _705
REMARK  285  A    between atoms: _704  and  _707
REMARK  286  A    between atoms: _707  and  _708
REMARK  287  A    between atoms: _708  and  _709
REMARK  288  A    between atoms: _712  and  _714
REMARK  289  A    between atoms: _714  and  _715
REMARK  290  A    between atoms: _714  and  _717
REMARK  291  A    between atoms: _717  and  _718
REMARK  292  A    between atoms: _718  and  _719
REMARK  293  A    between atoms: _719  and  _720
REMARK  294  A    between atoms: _729  and  _731
REMARK  295  A    between atoms: _731  and  _732
REMARK  296  A    between atoms: _731  and  _734
REMARK  297  A    between atoms: _734  and  _735
REMARK  298  A    between atoms: _738  and  _740
REMARK  299  A    between atoms: _740  and  _741
REMARK  300  A    between atoms: _740  and  _743
REMARK  301  A    between atoms: _743  and  _744
REMARK  302  A    between atoms: _744  and  _745
REMARK  303  A    between atoms: _745  and  _746
REMARK  304  A    between atoms: _755  and  _757
REMARK  305  A    between atoms: _757  and  _758
REMARK  306  A    between atoms: _761  and  _763
REMARK  307  A    between atoms: _763  and  _764
REMARK  308  A    between atoms: _763  and  _766
REMARK  309  A    between atoms: _766  and  _767
REMARK  310  A    between atoms: _772  and  _773
REMARK  311  A    between atoms: _775  and  _777
REMARK  312  A    between atoms: _777  and  _778
REMARK  313  A    between atoms: _777  and  _780
REMARK  314  A    between atoms: _780  and  _781
REMARK  315  A    between atoms: _784  and  _786
REMARK  316  A    between atoms: _786  and  _787
REMARK  317  A    between atoms: _786  and  _789
REMARK  318  A    between atoms: _789  and  _790
REMARK  319  A    between atoms: _793  and  _795
REMARK  320  A    between atoms: _795  and  _796
REMARK  321  A    between atoms: _795  and  _798
REMARK  322  A    between atoms: _800  and  _802
REMARK  323  A    between atoms: _802  and  _803
REMARK  324  A    between atoms: _802  and  _805
REMARK  325  A    between atoms: _808  and  _810
REMARK  326  A    between atoms: _810  and  _811
REMARK  327  A    between atoms: _810  and  _813
REMARK  328  A    between atoms: _813  and  _814
REMARK  329  A    between atoms: _814  and  _815
REMARK  330  A    between atoms: _818  and  _820
REMARK  331  A    between atoms: _820  and  _821
REMARK  332  A    between atoms: _820  and  _823
REMARK  333  A    between atoms: _823  and  _824
REMARK  334  A    between atoms: _834  and  _836
REMARK  335  A    between atoms: _836  and  _837
REMARK  336  A    between atoms: _836  and  _839
REMARK  337  A    between atoms: _839  and  _840
REMARK  338  A    between atoms: _843  and  _845
REMARK  339  A    between atoms: _845  and  _846
REMARK  340  A    between atoms: _845  and  _848
REMARK  341  A    between atoms: _848  and  _849
REMARK  342  A    between atoms: _849  and  _850
REMARK  343  A    between atoms: _850  and  _851
REMARK  344  A    between atoms: _860  and  _862
REMARK  345  A    between atoms: _862  and  _863
REMARK  346  A    between atoms: _862  and  _865
REMARK  347  A    between atoms: _865  and  _866
REMARK  348  A    between atoms: _871  and  _872
REMARK  349  A    between atoms: _874  and  _876
REMARK  350  A    between atoms: _876  and  _877
REMARK  351  A    between atoms: _876  and  _879
REMARK  352  A    between atoms: _879  and  _880
REMARK  353  A    between atoms: _880  and  _881
REMARK  354  A    between atoms: _886  and  _888
REMARK  355  A    between atoms: _888  and  _889
REMARK  356  A    between atoms: _888  and  _891
REMARK  357  A    between atoms: _891  and  _892
REMARK  358  A    between atoms: _895  and  _897
REMARK  359  A    between atoms: _897  and  _898
REMARK  360  A    between atoms: _897  and  _900
REMARK  361  A    between atoms: _900  and  _901
REMARK  362  A    between atoms: _903  and  _905
REMARK  363  A    between atoms: _905  and  _906
REMARK  364  A    between atoms: _905  and  _908
REMARK  365  A    between atoms: _908  and  _909
REMARK  366  A    between atoms: _911  and  _913
REMARK  367  A    between atoms: _913  and  _914
REMARK  368  A    between atoms: _913  and  _916
REMARK  369  A    between atoms: _916  and  _917
REMARK  370  A    between atoms: _923  and  _925
REMARK  371  A    between atoms: _925  and  _926
REMARK  372  A    between atoms: _925  and  _928
REMARK  373  A    between atoms: _928  and  _929
REMARK  374  A    between atoms: _929  and  _930
REMARK  375  A    between atoms: _930  and  _931
REMARK  376  A    between atoms: _940  and  _942
REMARK  377  A    between atoms: _942  and  _943
REMARK  378  A    between atoms: _942  and  _945
REMARK  379  A    between atoms: _945  and  _946
REMARK  380  A    between atoms: _946  and  _947
REMARK  381  A    between atoms: _947  and  _948
REMARK  382  A    between atoms: _957  and  _959
REMARK  383  A    between atoms: _959  and  _960
REMARK  384  A    between atoms: _962  and  _964
REMARK  385  A    between atoms: _964  and  _965
REMARK  386  A    between atoms: _964  and  _967
REMARK  387  A    between atoms: _967  and  _968
REMARK  388  A    between atoms: _974  and  _975
REMARK  389  A    between atoms: _980  and  _982
REMARK  390  A    between atoms: _982  and  _983
REMARK  391  A    between atoms: _982  and  _985
REMARK  392  A    between atoms: _985  and  _986
REMARK  393  A    between atoms: _996  and  _998
REMARK  394  A    between atoms: _998  and  _999
REMARK  395  A    between atoms: _998  and  _1001
REMARK  396  A    between atoms: _1001  and  _1002
REMARK  397  A    between atoms: _1002  and  _1003
REMARK  398  A    between atoms: _1003  and  _1004
REMARK  399  A    between atoms: _1013  and  _1015
REMARK  400  A    between atoms: _1015  and  _1016
REMARK  401  A    between atoms: _1015  and  _1018
REMARK  402  A    between atoms: _1018  and  _1019
REMARK  403  A    between atoms: _1021  and  _1023
REMARK  404  A    between atoms: _1023  and  _1024
REMARK  405  A    between atoms: _1027  and  _1029
REMARK  406  A    between atoms: _1029  and  _1030
REMARK  407  A    between atoms: _1029  and  _1032
REMARK  408  A    between atoms: _1032  and  _1033
REMARK  409  A    between atoms: _1036  and  _1038
REMARK  410  A    between atoms: _1038  and  _1039
REMARK  411  A    between atoms: _1038  and  _1041
REMARK  412  A    between atoms: _1041  and  _1042
REMARK  413  A    between atoms: _1042  and  _1043
REMARK  414  A    between atoms: _1043  and  _1044
REMARK  415  A    between atoms: _1053  and  _1055
REMARK  416  A    between atoms: _1055  and  _1056
REMARK  417  A    between atoms: _1055  and  _1058
REMARK  418  A    between atoms: _1061  and  _1063
REMARK  419  A    between atoms: _1063  and  _1064
REMARK  420  A    between atoms: _1066  and  _1068
REMARK  421  A    between atoms: _1068  and  _1069
REMARK  422  A    between atoms: _1068  and  _1071
REMARK  423  A    between atoms: _1071  and  _1072
REMARK                            x       y       z     vdW  Elec       q    Type
REMARK                         _______ _______ _______ _____ _____    ______ ____
ROOT
ATOM      1  O   HOH     1      21.805  37.704  53.208  0.00  0.00    +0.000 OA
ENDROOT
TORSDOF 0
REMARK  Name = ../refined-set-2016/1fo0/1fo0_pocket.pdb
REMARK  423 active torsions:
REMARK  status: ('A' for Active; 'I' for Inactive)
REMARK    1  A    between atoms: _1  and  _3
REMARK    2  A    between atoms: _3  and  _4
REMARK    3  A    between atoms: _3  and  _6
REMARK    4  A    between atoms: _6  and  _7
REMARK    5  A    between atoms: _10  and  _12
REMARK    6  A    between atoms: _12  and  _13
REMARK    7  A    between atoms: _12  and  _15
REMARK    8  A    between atoms: _15  and  _16
REMARK    9  A    between atoms: _16  and  _17
REMARK   10  A    between atoms: _17  and  _18
REMARK   11  A    between atoms: _27  and  _29
REMARK   12  A    between atoms: _29  and  _30
REMARK   13  A    between atoms: _29  and  _32
REMARK   14  A    between atoms: _32  and  _33
REMARK   15  A    between atoms: _38  and  _39
REMARK   16  A    between atoms: _41  and  _43
REMARK   17  A    between atoms: _43  and  _44
REMARK   18  A    between atoms: _43  and  _46
REMARK   19  A    between atoms: _46  and  _47
REMARK   20  A    between atoms: _53  and  _55
REMARK   21  A    between atoms: _55  and  _56
REMARK   22  A    between atoms: _55  and  _58
REMARK   23  A    between atoms: _61  and  _63
REMARK   24  A    between atoms: _63  and  _64
REMARK   25  A    between atoms: _63  and  _66
REMARK   26  A    between atoms: _66  and  _67
REMARK   27  A    between atoms: _70  and  _72
REMARK   28  A    between atoms: _72  and  _73
REMARK   29  A    between atoms: _72  and  _75
REMARK   30  A    between atoms: _75  and  _76
REMARK   31  A    between atoms: _81  and  _82
REMARK   32  A    between atoms: _84  and  _86
REMARK   33  A    between atoms: _86  and  _87
REMARK   34  A    between atoms: _86  and  _89
REMARK   35  A    between atoms: _89  and  _90
REMARK   36  A    between atoms: _90  and  _91
REMARK   37  A    between atoms: _93  and  _95
REMARK   38  A    between atoms: _95  and  _96
REMARK   39  A    between atoms: _95  and  _98
REMARK   40  A    between atoms: _98  and  _99
REMARK   41  A    between atoms: _99  and  _100
REMARK   42  A    between atoms: _103  and  _105
REMARK   43  A    between atoms: _105  and  _106
REMARK   44  A    between atoms: _105  and  _108
REMARK   45  A    between atoms: _111  and  _113
REMARK   46  A    between atoms: _113  and  _114
REMARK   47  A    between atoms: _116  and  _118
REMARK   48  A    between atoms: _118  and  _119
REMARK   49  A    between atoms: _118  and  _121
REMARK   50  A    between atoms: _121  and  _122
REMARK   51  A    between atoms: _128  and  _130
REMARK   52  A    between atoms: _130  and  _131
REMARK   53  A    between atoms: _130  and  _133
REMARK   54  A    between atoms: _136  and  _138
REMARK   55  A    between atoms: _138  and  _139
REMARK   56  A    between atoms: _138  and  _141
REMARK   57  A    between atoms: _141  and  _142
REMARK   58  A    between atoms: _148  and  _150
REMARK   59  A    between atoms: _150  and  _151
REMARK   60  A    between atoms: _150  and  _153
REMARK   61  A    between atoms: _153  and  _154
REMARK   62  A    between atoms: _159  and  _160
REMARK   63  A    between atoms: _162  and  _164
REMARK   64  A    between atoms: _164  and  _165
REMARK   65  A    between atoms: _164  and  _167
REMARK   66  A    between atoms: _167  and  _168
REMARK   67  A    between atoms: _168  and  _169
REMARK   68  A    between atoms: _171  and  _173
REMARK   69  A    between atoms: _173  and  _174
REMARK   70  A    between atoms: _173  and  _176
REMARK   71  A    between atoms: _176  and  _177
REMARK   72  A    between atoms: _177  and  _178
REMARK   73  A    between atoms: _181  and  _183
REMARK   74  A    between atoms: _183  and  _184
REMARK   75  A    between atoms: _183  and  _186
REMARK   76  A    between atoms: _186  and  _187
REMARK   77  A    between atoms: _192  and  _193
REMARK   78  A    between atoms: _195  and  _197
REMARK   79  A    between atoms: _197  and  _198
REMARK   80  A    between atoms: _197  and  _200
REMARK   81  A    between atoms: _200  and  _201
REMARK   82  A    between atoms: _201  and  _202
REMARK   83  A    between atoms: _202  and  _203
REMARK   84  A    between atoms: _212  and  _214
REMARK   85  A    between atoms: _214  and  _215
REMARK   86  A    between atoms: _214  and  _217
REMARK   87  A    between atoms: _217  and  _218
REMARK   88  A    between atoms: _218  and  _219
REMARK   89  A    between atoms: _222  and  _224
REMARK   90  A    between atoms: _224  and  _225
REMARK   91  A    between atoms: _224  and  _227
REMARK   92  A    between atoms: _227  and  _228
REMARK   93  A    between atoms: _228  and  _229
REMARK   94  A    between atoms: _234  and  _236
REMARK   95  A    between atoms: _236  and  _237
REMARK   96  A    between atoms: _236  and  _239
REMARK   97  A    between atoms: _239  and  _240
REMARK   98  A    between atoms: _240  and  _241
REMARK   99  A    between atoms: _241  and  _242
REMARK  100  A    between atoms: _242  and  _243
REMARK  101  A    between atoms: _247  and  _249
REMARK  102  A    between atoms: _249  and  _250
REMARK  103  A    between atoms: _253  and  _255
REMARK  104  A    between atoms: _255  and  _256
REMARK  105  A    between atoms: _255  and  _258
REMARK  106  A    between atoms: _258  and  _259
REMARK  107  A    between atoms: _259  and  _260
REMARK  108  A    between atoms: _260  and  _261
REMARK  109  A    between atoms: _261  and  _262
REMARK  110  A    between atoms: _266  and  _268
REMARK  111  A    between atoms: _268  and  _269
REMARK  112  A    between atoms: _271  and  _273
REMARK  113  A    between atoms: _273  and  _274
REMARK  114  A    between atoms: _273  and  _276
REMARK  115  A    between atoms: _276  and  _277
REMARK  116  A    between atoms: _282  and  _284
REMARK  117  A    between atoms: _284  and  _285
REMARK  118  A    between atoms: _284  and  _287
REMARK  119  A    between atoms: _287  and  _288
REMARK  120  A    between atoms: _288  and  _289
REMARK  121  A    between atoms: _292  and  _294
REMARK  122  A    between atoms: _294  and  _295
REMARK  123  A    between atoms: _294  and  _297
REMARK  124  A    between atoms: _297  and  _298
REMARK  125  A    between atoms: _298  and  _299
REMARK  126  A    between atoms: _304  and  _306
REMARK  127  A    between atoms: _306  and  _307
REMARK  128  A    between atoms: _306  and  _309
REMARK  129  A    between atoms: _309  and  _310
REMARK  130  A    between atoms: _312  and  _314
REMARK  131  A    between atoms: _314  and  _315
REMARK  132  A    between atoms: _314  and  _317
REMARK  133  A    between atoms: _317  and  _318
REMARK  134  A    between atoms: _324  and  _326
REMARK  135  A    between atoms: _326  and  _327
REMARK  136  A    between atoms: _326  and  _329
REMARK  137  A    between atoms: _329  and  _330
REMARK  138  A    between atoms: _330  and  _331
REMARK  139  A    between atoms: _331  and  _332
REMARK  140  A    between atoms: _341  and  _343
REMARK  141  A    between atoms: _343  and  _344
REMARK  142  A    between atoms: _343  and  _346
REMARK  143  A    between atoms: _349  and  _351
REMARK  144  A    between atoms: _351  and  _352
REMARK  145  A    between atoms: _351  and  _354
REMARK  146  A    between atoms: _354  and  _355
REMARK  147  A    between atoms: _358  and  _360
REMARK  148  A    between atoms: _360  and  _361
REMARK  149  A    between atoms: _360  and  _363
REMARK  150  A    between atoms: _363  and  _364
REMARK  151  A    between atoms: _367  and  _369
REMARK  152  A    between atoms: _369  and  _370
REMARK  153  A    between atoms: _369  and  _372
REMARK  154  A    between atoms: _372  and  _373
REMARK  155  A    between atoms: _373  and  _374
REMARK  156  A    between atoms: _374  and  _375
REMARK  157  A    between atoms: _384  and  _386
REMARK  158  A    between atoms: _386  and  _387
REMARK  159  A    between atoms: _386  and  _389
REMARK  160  A    between atoms: _389  and  _390
REMARK  161  A    between atoms: _393  and  _395
REMARK  162  A    between atoms: _395  and  _396
REMARK  163  A    between atoms: _395  and  _398
REMARK  164  A    between atoms: _398  and  _399
REMARK  165  A    between atoms: _402  and  _404
REMARK  166  A    between atoms: _404  and  _405
REMARK  167  A    between atoms: _404  and  _407
REMARK  168  A    between atoms: _407  and  _408
REMARK  169  A    between atoms: _411  and  _413
REMARK  170  A    between atoms: _413  and  _414
REMARK  171  A    between atoms: _413  and  _416
REMARK  172  A    between atoms: _416  and  _417
REMARK  173  A    between atoms: _422  and  _423
REMARK  174  A    between atoms: _425  and  _427
REMARK  175  A    between atoms: _427  and  _428
REMARK  176  A    between atoms: _427  and  _430
REMARK  177  A    between atoms: _430  and  _431
REMARK  178  A    between atoms: _436  and  _437
REMARK  179  A    between atoms: _439  and  _441
REMARK  180  A    between atoms: _441  and  _442
REMARK  181  A    between atoms: _441  and  _444
REMARK  182  A    between atoms: _444  and  _445
REMARK  183  A    between atoms: _448  and  _450
REMARK  184  A    between atoms: _450  and  _451
REMARK  185  A    between atoms: _450  and  _453
REMARK  186  A    between atoms: _456  and  _458
REMARK  187  A    between atoms: _458  and  _459
REMARK  188  A    between atoms: _458  and  _461
REMARK  189  A    between atoms: _461  and  _462
REMARK  190  A    between atoms: _465  and  _467
REMARK  191  A    between atoms: _467  and  _468
REMARK  192  A    between atoms: _467  and  _470
REMARK  193  A    between atoms: _470  and  _471
REMARK  194  A    between atoms: _473  and  _475
REMARK  195  A    between atoms: _475  and  _476
REMARK  196  A    between atoms: _478  and  _480
REMARK  197  A    between atoms: _480  and  _481
REMARK  198  A    between atoms: _480  and  _483
REMARK  199  A    between atoms: _483  and  _484
REMARK  200  A    between atoms: _489  and  _490
REMARK  201  A    between atoms: _492  and  _494
REMARK  202  A    between atoms: _494  and  _495
REMARK  203  A    between atoms: _494  and  _497
REMARK  204  A    between atoms: _497  and  _498
REMARK  205  A    between atoms: _498  and  _499
REMARK  206  A    between atoms: _504  and  _506
REMARK  207  A    between atoms: _506  and  _507
REMARK  208  A    between atoms: _506  and  _509
REMARK  209  A    between atoms: _509  and  _510
REMARK  210  A    between atoms: _510  and  _511
REMARK  211  A    between atoms: _516  and  _518
REMARK  212  A    between atoms: _518  and  _519
REMARK  213  A    between atoms: _518  and  _521
REMARK  214  A    between atoms: _521  and  _522
REMARK  215  A    between atoms: _527  and  _528
REMARK  216  A    between atoms: _530  and  _532
REMARK  217  A    between atoms: _532  and  _533
REMARK  218  A    between atoms: _532  and  _535
REMARK  219  A    between atoms: _535  and  _536
REMARK  220  A    between atoms: _541  and  _542
REMARK  221  A    between atoms: _544  and  _546
REMARK  222  A    between atoms: _546  and  _547
REMARK  223  A    between atoms: _546  and  _549
REMARK  224  A    between atoms: _549  and  _550
REMARK  225  A    between atoms: _555  and  _556
REMARK  226  A    between atoms: _558  and  _560
REMARK  227  A    between atoms: _560  and  _561
REMARK  228  A    between atoms: _560  and  _563
REMARK  229  A    between atoms: _563  and  _564
REMARK  230  A    between atoms: _567  and  _569
REMARK  231  A    between atoms: _569  and  _570
REMARK  232  A    between atoms: _569  and  _572
REMARK  233  A    between atoms: _572  and  _573
REMARK  234  A    between atoms: _583  and  _585
REMARK  235  A    between atoms: _585  and  _586
REMARK  236  A    between atoms: _589  and  _591
REMARK  237  A    between atoms: _591  and  _592
REMARK  238  A    between atoms: _595  and  _597
REMARK  239  A    between atoms: _597  and  _598
REMARK  240  A    between atoms: _597  and  _600
REMARK  241  A    between atoms: _600  and  _601
REMARK  242  A    between atoms: _604  and  _606
REMARK  243  A    between atoms: _606  and  _607
REMARK  244  A    between atoms: _606  and  _609
REMARK  245  A    between atoms: _609  and  _610
REMARK  246  A    between atoms: _613  and  _615
REMARK  247  A    between atoms: _615  and  _616
REMARK  248  A    between atoms: _615  and  _618
REMARK  249  A    between atoms: _618  and  _619
REMARK  250  A    between atoms: _622  and  _624
REMARK  251  A    between atoms: _624  and  _625
REMARK  252  A    between atoms: _624  and  _627
REMARK  253  A    between atoms: _627  and  _628
REMARK  254  A    between atoms: _628  and  _629
REMARK  255  A    between atoms: _629  and  _630
REMARK  256  A    between atoms: _630  and  _631
REMARK  257  A    between atoms: _635  and  _637
REMARK  258  A    between atoms: _637  and  _638
REMARK  259  A    between atoms: _637  and  _640
REMARK  260  A    between atoms: _640  and  _641
REMARK  261  A    between atoms: _646  and  _648
REMARK  262  A    between atoms: _648  and  _649
REMARK  263  A    between atoms: _648  and  _651
REMARK  264  A    between atoms: _651  and  _652
REMARK  265  A    between atoms: _652  and  _653
REMARK  266  A    between atoms: _653  and  _654
REMARK  267  A    between atoms: _654  and  _655
REMARK  268  A    between atoms: _659  and  _661
REMARK  269  A    between atoms: _661  and  _662
REMARK  270  A    between atoms: _661  and  _664
REMARK  271  A    between atoms: _664  and  _665
REMARK  272  A    between atoms: _675  and  _677
REMARK  273  A    between atoms: _677  and  _678
REMARK  274  A    between atoms: _681  and  _683
REMARK  275  A    between atoms: _683  and  _684
REMARK  276  A    between atoms: _686  and  _688
REMARK  277  A    between atoms: _688  and  _689
REMARK  278  A    between atoms: _688  and  _691
REMARK  279  A    between atoms: _691  and  _692
REMARK  280  A    between atoms: _692  and  _693
REMARK  281  A    between atoms: _696  and  _698
REMARK  282  A    between atoms: _698  and  _699
REMARK  283  A    between atoms: _702  and  _704
REMARK  284  A    between atoms: _704  and  _705
REMARK  285  A    between atoms: _704  and  _707
REMARK  286  A    between atoms: _707  and  _708
REMARK  287  A    between atoms: _708  and  _709
REMARK  288  A    between atoms: _712  and  _714
REMARK  289  A    between atoms: _714  and  _715
REMARK  290  A    between atoms: _714  and  _717
REMARK  291  A    between atoms: _717  and  _718
REMARK  292  A    between atoms: _718  and  _719
REMARK  293  A    between atoms: _719  and  _720
REMARK  294  A    between atoms: _729  and  _731
REMARK  295  A    between atoms: _731  and  _732
REMARK  296  A    between atoms: _731  and  _734
REMARK  297  A    between atoms: _734  and  _735
REMARK  298  A    between atoms: _738  and  _740
REMARK  299  A    between atoms: _740  and  _741
REMARK  300  A    between atoms: _740  and  _743
REMARK  301  A    between atoms: _743  and  _744
REMARK  302  A    between atoms: _744  and  _745
REMARK  303  A    between atoms: _745  and  _746
REMARK  304  A    between atoms: _755  and  _757
REMARK  305  A    between atoms: _757  and  _758
REMARK  306  A    between atoms: _761  and  _763
REMARK  307  A    between atoms: _763  and  _764
REMARK  308  A    between atoms: _763  and  _766
REMARK  309  A    between atoms: _766  and  _767
REMARK  310  A    between atoms: _772  and  _773
REMARK  311  A    between atoms: _775  and  _777
REMARK  312  A    between atoms: _777  and  _778
REMARK  313  A    between atoms: _777  and  _780
REMARK  314  A    between atoms: _780  and  _781
REMARK  315  A    between atoms: _784  and  _786
REMARK  316  A    between atoms: _786  and  _787
REMARK  317  A    between atoms: _786  and  _789
REMARK  318  A    between atoms: _789  and  _790
REMARK  319  A    between atoms: _793  and  _795
REMARK  320  A    between atoms: _795  and  _796
REMARK  321  A    between atoms: _795  and  _798
REMARK  322  A    between atoms: _800  and  _802
REMARK  323  A    between atoms: _802  and  _803
REMARK  324  A    between atoms: _802  and  _805
REMARK  325  A    between atoms: _808  and  _810
REMARK  326  A    between atoms: _810  and  _811
REMARK  327  A    between atoms: _810  and  _813
REMARK  328  A    between atoms: _813  and  _814
REMARK  329  A    between atoms: _814  and  _815
REMARK  330  A    between atoms: _818  and  _820
REMARK  331  A    between atoms: _820  and  _821
REMARK  332  A    between atoms: _820  and  _823
REMARK  333  A    between atoms: _823  and  _824
REMARK  334  A    between atoms: _834  and  _836
REMARK  335  A    between atoms: _836  and  _837
REMARK  336  A    between atoms: _836  and  _839
REMARK  337  A    between atoms: _839  and  _840
REMARK  338  A    between atoms: _843  and  _845
REMARK  339  A    between atoms: _845  and  _846
REMARK  340  A    between atoms: _845  and  _848
REMARK  341  A    between atoms: _848  and  _849
REMARK  342  A    between atoms: _849  and  _850
REMARK  343  A    between atoms: _850  and  _851
REMARK  344  A    between atoms: _860  and  _862
REMARK  345  A    between atoms: _862  and  _863
REMARK  346  A    between atoms: _862  and  _865
REMARK  347  A    between atoms: _865  and  _866
REMARK  348  A    between atoms: _871  and  _872
REMARK  349  A    between atoms: _874  and  _876
REMARK  350  A    between atoms: _876  and  _877
REMARK  351  A    between atoms: _876  and  _879
REMARK  352  A    between atoms: _879  and  _880
REMARK  353  A    between atoms: _880  and  _881
REMARK  354  A    between atoms: _886  and  _888
REMARK  355  A    between atoms: _888  and  _889
REMARK  356  A    between atoms: _888  and  _891
REMARK  357  A    between atoms: _891  and  _892
REMARK  358  A    between atoms: _895  and  _897
REMARK  359  A    between atoms: _897  and  _898
REMARK  360  A    between atoms: _897  and  _900
REMARK  361  A    between atoms: _900  and  _901
REMARK  362  A    between atoms: _903  and  _905
REMARK  363  A    between atoms: _905  and  _906
REMARK  364  A    between atoms: _905  and  _908
REMARK  365  A    between atoms: _908  and  _909
REMARK  366  A    between atoms: _911  and  _913
REMARK  367  A    between atoms: _913  and  _914
REMARK  368  A    between atoms: _913  and  _916
REMARK  369  A    between atoms: _916  and  _917
REMARK  370  A    between atoms: _923  and  _925
REMARK  371  A    between atoms: _925  and  _926
REMARK  372  A    between atoms: _925  and  _928
REMARK  373  A    between atoms: _928  and  _929
REMARK  374  A    between atoms: _929  and  _930
REMARK  375  A    between atoms: _930  and  _931
REMARK  376  A    between atoms: _940  and  _942
REMARK  377  A    between atoms: _942  and  _943
REMARK  378  A    between atoms: _942  and  _945
REMARK  379  A    between atoms: _945  and  _946
REMARK  380  A    between atoms: _946  and  _947
REMARK  381  A    between atoms: _947  and  _948
REMARK  382  A    between atoms: _957  and  _959
REMARK  383  A    between atoms: _959  and  _960
REMARK  384  A    between atoms: _962  and  _964
REMARK  385  A    between atoms: _964  and  _965
REMARK  386  A    between atoms: _964  and  _967
REMARK  387  A    between atoms: _967  and  _968
REMARK  388  A    between atoms: _974  and  _975
REMARK  389  A    between atoms: _980  and  _982
REMARK  390  A    between atoms: _982  and  _983
REMARK  391  A    between atoms: _982  and  _985
REMARK  392  A    between atoms: _985  and  _986
REMARK  393  A    between atoms: _996  and  _998
REMARK  394  A    between atoms: _998  and  _999
REMARK  395  A    between atoms: _998  and  _1001
REMARK  396  A    between atoms: _1001  and  _1002
REMARK  397  A    between atoms: _1002  and  _1003
REMARK  398  A    between atoms: _1003  and  _1004
REMARK  399  A    between atoms: _1013  and  _1015
REMARK  400  A    between atoms: _1015  and  _1016
REMARK  401  A    between atoms: _1015  and  _1018
REMARK  402  A    between atoms: _1018  and  _1019
REMARK  403  A    between atoms: _1021  and  _1023
REMARK  404  A    between atoms: _1023  and  _1024
REMARK  405  A    between atoms: _1027  and  _1029
REMARK  406  A    between atoms: _1029  and  _1030
REMARK  407  A    between atoms: _1029  and  _1032
REMARK  408  A    between atoms: _1032  and  _1033
REMARK  409  A    between atoms: _1036  and  _1038
REMARK  410  A    between atoms: _1038  and  _1039
REMARK  411  A    between atoms: _1038  and  _1041
REMARK  412  A    between atoms: _1041  and  _1042
REMARK  413  A    between atoms: _1042  and  _1043
REMARK  414  A    between atoms: _1043  and  _1044
REMARK  415  A    between atoms: _1053  and  _1055
REMARK  416  A    between atoms: _1055  and  _1056
REMARK  417  A    between atoms: _1055  and  _1058
REMARK  418  A    between atoms: _1061  and  _1063
REMARK  419  A    between atoms: _1063  and  _1064
REMARK  420  A    between atoms: _1066  and  _1068
REMARK  421  A    between atoms: _1068  and  _1069
REMARK  422  A    between atoms: _1068  and  _1071
REMARK  423  A    between atoms: _1071  and  _1072
REMARK                            x       y       z     vdW  Elec       q    Type
REMARK                         _______ _______ _______ _____ _____    ______ ____
ROOT
ATOM      1  O   HOH     1      23.726  32.693  55.701  0.00  0.00    +0.000 OA
ENDROOT
TORSDOF 0
REMARK  Name = ../refined-set-2016/1fo0/1fo0_pocket.pdb
REMARK  423 active torsions:
REMARK  status: ('A' for Active; 'I' for Inactive)
REMARK    1  A    between atoms: _1  and  _3
REMARK    2  A    between atoms: _3  and  _4
REMARK    3  A    between atoms: _3  and  _6
REMARK    4  A    between atoms: _6  and  _7
REMARK    5  A    between atoms: _10  and  _12
REMARK    6  A    between atoms: _12  and  _13
REMARK    7  A    between atoms: _12  and  _15
REMARK    8  A    between atoms: _15  and  _16
REMARK    9  A    between atoms: _16  and  _17
REMARK   10  A    between atoms: _17  and  _18
REMARK   11  A    between atoms: _27  and  _29
REMARK   12  A    between atoms: _29  and  _30
REMARK   13  A    between atoms: _29  and  _32
REMARK   14  A    between atoms: _32  and  _33
REMARK   15  A    between atoms: _38  and  _39
REMARK   16  A    between atoms: _41  and  _43
REMARK   17  A    between atoms: _43  and  _44
REMARK   18  A    between atoms: _43  and  _46
REMARK   19  A    between atoms: _46  and  _47
REMARK   20  A    between atoms: _53  and  _55
REMARK   21  A    between atoms: _55  and  _56
REMARK   22  A    between atoms: _55  and  _58
REMARK   23  A    between atoms: _61  and  _63
REMARK   24  A    between atoms: _63  and  _64
REMARK   25  A    between atoms: _63  and  _66
REMARK   26  A    between atoms: _66  and  _67
REMARK   27  A    between atoms: _70  and  _72
REMARK   28  A    between atoms: _72  and  _73
REMARK   29  A    between atoms: _72  and  _75
REMARK   30  A    between atoms: _75  and  _76
REMARK   31  A    between atoms: _81  and  _82
REMARK   32  A    between atoms: _84  and  _86
REMARK   33  A    between atoms: _86  and  _87
REMARK   34  A    between atoms: _86  and  _89
REMARK   35  A    between atoms: _89  and  _90
REMARK   36  A    between atoms: _90  and  _91
REMARK   37  A    between atoms: _93  and  _95
REMARK   38  A    between atoms: _95  and  _96
REMARK   39  A    between atoms: _95  and  _98
REMARK   40  A    between atoms: _98  and  _99
REMARK   41  A    between atoms: _99  and  _100
REMARK   42  A    between atoms: _103  and  _105
REMARK   43  A    between atoms: _105  and  _106
REMARK   44  A    between atoms: _105  and  _108
REMARK   45  A    between atoms: _111  and  _113
REMARK   46  A    between atoms: _113  and  _114
REMARK   47  A    between atoms: _116  and  _118
REMARK   48  A    between atoms: _118  and  _119
REMARK   49  A    between atoms: _118  and  _121
REMARK   50  A    between atoms: _121  and  _122
REMARK   51  A    between atoms: _128  and  _130
REMARK   52  A    between atoms: _130  and  _131
REMARK   53  A    between atoms: _130  and  _133
REMARK   54  A    between atoms: _136  and  _138
REMARK   55  A    between atoms: _138  and  _139
REMARK   56  A    between atoms: _138  and  _141
REMARK   57  A    between atoms: _141  and  _142
REMARK   58  A    between atoms: _148  and  _150
REMARK   59  A    between atoms: _150  and  _151
REMARK   60  A    between atoms: _150  and  _153
REMARK   61  A    between atoms: _153  and  _154
REMARK   62  A    between atoms: _159  and  _160
REMARK   63  A    between atoms: _162  and  _164
REMARK   64  A    between atoms: _164  and  _165
REMARK   65  A    between atoms: _164  and  _167
REMARK   66  A    between atoms: _167  and  _168
REMARK   67  A    between atoms: _168  and  _169
REMARK   68  A    between atoms: _171  and  _173
REMARK   69  A    between atoms: _173  and  _174
REMARK   70  A    between atoms: _173  and  _176
REMARK   71  A    between atoms: _176  and  _177
REMARK   72  A    between atoms: _177  and  _178
REMARK   73  A    between atoms: _181  and  _183
REMARK   74  A    between atoms: _183  and  _184
REMARK   75  A    between atoms: _183  and  _186
REMARK   76  A    between atoms: _186  and  _187
REMARK   77  A    between atoms: _192  and  _193
REMARK   78  A    between atoms: _195  and  _197
REMARK   79  A    between atoms: _197  and  _198
REMARK   80  A    between atoms: _197  and  _200
REMARK   81  A    between atoms: _200  and  _201
REMARK   82  A    between atoms: _201  and  _202
REMARK   83  A    between atoms: _202  and  _203
REMARK   84  A    between atoms: _212  and  _214
REMARK   85  A    between atoms: _214  and  _215
REMARK   86  A    between atoms: _214  and  _217
REMARK   87  A    between atoms: _217  and  _218
REMARK   88  A    between atoms: _218  and  _219
REMARK   89  A    between atoms: _222  and  _224
REMARK   90  A    between atoms: _224  and  _225
REMARK   91  A    between atoms: _224  and  _227
REMARK   92  A    between atoms: _227  and  _228
REMARK   93  A    between atoms: _228  and  _229
REMARK   94  A    between atoms: _234  and  _236
REMARK   95  A    between atoms: _236  and  _237
REMARK   96  A    between atoms: _236  and  _239
REMARK   97  A    between atoms: _239  and  _240
REMARK   98  A    between atoms: _240  and  _241
REMARK   99  A    between atoms: _241  and  _242
REMARK  100  A    between atoms: _242  and  _243
REMARK  101  A    between atoms: _247  and  _249
REMARK  102  A    between atoms: _249  and  _250
REMARK  103  A    between atoms: _253  and  _255
REMARK  104  A    between atoms: _255  and  _256
REMARK  105  A    between atoms: _255  and  _258
REMARK  106  A    between atoms: _258  and  _259
REMARK  107  A    between atoms: _259  and  _260
REMARK  108  A    between atoms: _260  and  _261
REMARK  109  A    between atoms: _261  and  _262
REMARK  110  A    between atoms: _266  and  _268
REMARK  111  A    between atoms: _268  and  _269
REMARK  112  A    between atoms: _271  and  _273
REMARK  113  A    between atoms: _273  and  _274
REMARK  114  A    between atoms: _273  and  _276
REMARK  115  A    between atoms: _276  and  _277
REMARK  116  A    between atoms: _282  and  _284
REMARK  117  A    between atoms: _284  and  _285
REMARK  118  A    between atoms: _284  and  _287
REMARK  119  A    between atoms: _287  and  _288
REMARK  120  A    between atoms: _288  and  _289
REMARK  121  A    between atoms: _292  and  _294
REMARK  122  A    between atoms: _294  and  _295
REMARK  123  A    between atoms: _294  and  _297
REMARK  124  A    between atoms: _297  and  _298
REMARK  125  A    between atoms: _298  and  _299
REMARK  126  A    between atoms: _304  and  _306
REMARK  127  A    between atoms: _306  and  _307
REMARK  128  A    between atoms: _306  and  _309
REMARK  129  A    between atoms: _309  and  _310
REMARK  130  A    between atoms: _312  and  _314
REMARK  131  A    between atoms: _314  and  _315
REMARK  132  A    between atoms: _314  and  _317
REMARK  133  A    between atoms: _317  and  _318
REMARK  134  A    between atoms: _324  and  _326
REMARK  135  A    between atoms: _326  and  _327
REMARK  136  A    between atoms: _326  and  _329
REMARK  137  A    between atoms: _329  and  _330
REMARK  138  A    between atoms: _330  and  _331
REMARK  139  A    between atoms: _331  and  _332
REMARK  140  A    between atoms: _341  and  _343
REMARK  141  A    between atoms: _343  and  _344
REMARK  142  A    between atoms: _343  and  _346
REMARK  143  A    between atoms: _349  and  _351
REMARK  144  A    between atoms: _351  and  _352
REMARK  145  A    between atoms: _351  and  _354
REMARK  146  A    between atoms: _354  and  _355
REMARK  147  A    between atoms: _358  and  _360
REMARK  148  A    between atoms: _360  and  _361
REMARK  149  A    between atoms: _360  and  _363
REMARK  150  A    between atoms: _363  and  _364
REMARK  151  A    between atoms: _367  and  _369
REMARK  152  A    between atoms: _369  and  _370
REMARK  153  A    between atoms: _369  and  _372
REMARK  154  A    between atoms: _372  and  _373
REMARK  155  A    between atoms: _373  and  _374
REMARK  156  A    between atoms: _374  and  _375
REMARK  157  A    between atoms: _384  and  _386
REMARK  158  A    between atoms: _386  and  _387
REMARK  159  A    between atoms: _386  and  _389
REMARK  160  A    between atoms: _389  and  _390
REMARK  161  A    between atoms: _393  and  _395
REMARK  162  A    between atoms: _395  and  _396
REMARK  163  A    between atoms: _395  and  _398
REMARK  164  A    between atoms: _398  and  _399
REMARK  165  A    between atoms: _402  and  _404
REMARK  166  A    between atoms: _404  and  _405
REMARK  167  A    between atoms: _404  and  _407
REMARK  168  A    between atoms: _407  and  _408
REMARK  169  A    between atoms: _411  and  _413
REMARK  170  A    between atoms: _413  and  _414
REMARK  171  A    between atoms: _413  and  _416
REMARK  172  A    between atoms: _416  and  _417
REMARK  173  A    between atoms: _422  and  _423
REMARK  174  A    between atoms: _425  and  _427
REMARK  175  A    between atoms: _427  and  _428
REMARK  176  A    between atoms: _427  and  _430
REMARK  177  A    between atoms: _430  and  _431
REMARK  178  A    between atoms: _436  and  _437
REMARK  179  A    between atoms: _439  and  _441
REMARK  180  A    between atoms: _441  and  _442
REMARK  181  A    between atoms: _441  and  _444
REMARK  182  A    between atoms: _444  and  _445
REMARK  183  A    between atoms: _448  and  _450
REMARK  184  A    between atoms: _450  and  _451
REMARK  185  A    between atoms: _450  and  _453
REMARK  186  A    between atoms: _456  and  _458
REMARK  187  A    between atoms: _458  and  _459
REMARK  188  A    between atoms: _458  and  _461
REMARK  189  A    between atoms: _461  and  _462
REMARK  190  A    between atoms: _465  and  _467
REMARK  191  A    between atoms: _467  and  _468
REMARK  192  A    between atoms: _467  and  _470
REMARK  193  A    between atoms: _470  and  _471
REMARK  194  A    between atoms: _473  and  _475
REMARK  195  A    between atoms: _475  and  _476
REMARK  196  A    between atoms: _478  and  _480
REMARK  197  A    between atoms: _480  and  _481
REMARK  198  A    between atoms: _480  and  _483
REMARK  199  A    between atoms: _483  and  _484
REMARK  200  A    between atoms: _489  and  _490
REMARK  201  A    between atoms: _492  and  _494
REMARK  202  A    between atoms: _494  and  _495
REMARK  203  A    between atoms: _494  and  _497
REMARK  204  A    between atoms: _497  and  _498
REMARK  205  A    between atoms: _498  and  _499
REMARK  206  A    between atoms: _504  and  _506
REMARK  207  A    between atoms: _506  and  _507
REMARK  208  A    between atoms: _506  and  _509
REMARK  209  A    between atoms: _509  and  _510
REMARK  210  A    between atoms: _510  and  _511
REMARK  211  A    between atoms: _516  and  _518
REMARK  212  A    between atoms: _518  and  _519
REMARK  213  A    between atoms: _518  and  _521
REMARK  214  A    between atoms: _521  and  _522
REMARK  215  A    between atoms: _527  and  _528
REMARK  216  A    between atoms: _530  and  _532
REMARK  217  A    between atoms: _532  and  _533
REMARK  218  A    between atoms: _532  and  _535
REMARK  219  A    between atoms: _535  and  _536
REMARK  220  A    between atoms: _541  and  _542
REMARK  221  A    between atoms: _544  and  _546
REMARK  222  A    between atoms: _546  and  _547
REMARK  223  A    between atoms: _546  and  _549
REMARK  224  A    between atoms: _549  and  _550
REMARK  225  A    between atoms: _555  and  _556
REMARK  226  A    between atoms: _558  and  _560
REMARK  227  A    between atoms: _560  and  _561
REMARK  228  A    between atoms: _560  and  _563
REMARK  229  A    between atoms: _563  and  _564
REMARK  230  A    between atoms: _567  and  _569
REMARK  231  A    between atoms: _569  and  _570
REMARK  232  A    between atoms: _569  and  _572
REMARK  233  A    between atoms: _572  and  _573
REMARK  234  A    between atoms: _583  and  _585
REMARK  235  A    between atoms: _585  and  _586
REMARK  236  A    between atoms: _589  and  _591
REMARK  237  A    between atoms: _591  and  _592
REMARK  238  A    between atoms: _595  and  _597
REMARK  239  A    between atoms: _597  and  _598
REMARK  240  A    between atoms: _597  and  _600
REMARK  241  A    between atoms: _600  and  _601
REMARK  242  A    between atoms: _604  and  _606
REMARK  243  A    between atoms: _606  and  _607
REMARK  244  A    between atoms: _606  and  _609
REMARK  245  A    between atoms: _609  and  _610
REMARK  246  A    between atoms: _613  and  _615
REMARK  247  A    between atoms: _615  and  _616
REMARK  248  A    between atoms: _615  and  _618
REMARK  249  A    between atoms: _618  and  _619
REMARK  250  A    between atoms: _622  and  _624
REMARK  251  A    between atoms: _624  and  _625
REMARK  252  A    between atoms: _624  and  _627
REMARK  253  A    between atoms: _627  and  _628
REMARK  254  A    between atoms: _628  and  _629
REMARK  255  A    between atoms: _629  and  _630
REMARK  256  A    between atoms: _630  and  _631
REMARK  257  A    between atoms: _635  and  _637
REMARK  258  A    between atoms: _637  and  _638
REMARK  259  A    between atoms: _637  and  _640
REMARK  260  A    between atoms: _640  and  _641
REMARK  261  A    between atoms: _646  and  _648
REMARK  262  A    between atoms: _648  and  _649
REMARK  263  A    between atoms: _648  and  _651
REMARK  264  A    between atoms: _651  and  _652
REMARK  265  A    between atoms: _652  and  _653
REMARK  266  A    between atoms: _653  and  _654
REMARK  267  A    between atoms: _654  and  _655
REMARK  268  A    between atoms: _659  and  _661
REMARK  269  A    between atoms: _661  and  _662
REMARK  270  A    between atoms: _661  and  _664
REMARK  271  A    between atoms: _664  and  _665
REMARK  272  A    between atoms: _675  and  _677
REMARK  273  A    between atoms: _677  and  _678
REMARK  274  A    between atoms: _681  and  _683
REMARK  275  A    between atoms: _683  and  _684
REMARK  276  A    between atoms: _686  and  _688
REMARK  277  A    between atoms: _688  and  _689
REMARK  278  A    between atoms: _688  and  _691
REMARK  279  A    between atoms: _691  and  _692
REMARK  280  A    between atoms: _692  and  _693
REMARK  281  A    between atoms: _696  and  _698
REMARK  282  A    between atoms: _698  and  _699
REMARK  283  A    between atoms: _702  and  _704
REMARK  284  A    between atoms: _704  and  _705
REMARK  285  A    between atoms: _704  and  _707
REMARK  286  A    between atoms: _707  and  _708
REMARK  287  A    between atoms: _708  and  _709
REMARK  288  A    between atoms: _712  and  _714
REMARK  289  A    between atoms: _714  and  _715
REMARK  290  A    between atoms: _714  and  _717
REMARK  291  A    between atoms: _717  and  _718
REMARK  292  A    between atoms: _718  and  _719
REMARK  293  A    between atoms: _719  and  _720
REMARK  294  A    between atoms: _729  and  _731
REMARK  295  A    between atoms: _731  and  _732
REMARK  296  A    between atoms: _731  and  _734
REMARK  297  A    between atoms: _734  and  _735
REMARK  298  A    between atoms: _738  and  _740
REMARK  299  A    between atoms: _740  and  _741
REMARK  300  A    between atoms: _740  and  _743
REMARK  301  A    between atoms: _743  and  _744
REMARK  302  A    between atoms: _744  and  _745
REMARK  303  A    between atoms: _745  and  _746
REMARK  304  A    between atoms: _755  and  _757
REMARK  305  A    between atoms: _757  and  _758
REMARK  306  A    between atoms: _761  and  _763
REMARK  307  A    between atoms: _763  and  _764
REMARK  308  A    between atoms: _763  and  _766
REMARK  309  A    between atoms: _766  and  _767
REMARK  310  A    between atoms: _772  and  _773
REMARK  311  A    between atoms: _775  and  _777
REMARK  312  A    between atoms: _777  and  _778
REMARK  313  A    between atoms: _777  and  _780
REMARK  314  A    between atoms: _780  and  _781
REMARK  315  A    between atoms: _784  and  _786
REMARK  316  A    between atoms: _786  and  _787
REMARK  317  A    between atoms: _786  and  _789
REMARK  318  A    between atoms: _789  and  _790
REMARK  319  A    between atoms: _793  and  _795
REMARK  320  A    between atoms: _795  and  _796
REMARK  321  A    between atoms: _795  and  _798
REMARK  322  A    between atoms: _800  and  _802
REMARK  323  A    between atoms: _802  and  _803
REMARK  324  A    between atoms: _802  and  _805
REMARK  325  A    between atoms: _808  and  _810
REMARK  326  A    between atoms: _810  and  _811
REMARK  327  A    between atoms: _810  and  _813
REMARK  328  A    between atoms: _813  and  _814
REMARK  329  A    between atoms: _814  and  _815
REMARK  330  A    between atoms: _818  and  _820
REMARK  331  A    between atoms: _820  and  _821
REMARK  332  A    between atoms: _820  and  _823
REMARK  333  A    between atoms: _823  and  _824
REMARK  334  A    between atoms: _834  and  _836
REMARK  335  A    between atoms: _836  and  _837
REMARK  336  A    between atoms: _836  and  _839
REMARK  337  A    between atoms: _839  and  _840
REMARK  338  A    between atoms: _843  and  _845
REMARK  339  A    between atoms: _845  and  _846
REMARK  340  A    between atoms: _845  and  _848
REMARK  341  A    between atoms: _848  and  _849
REMARK  342  A    between atoms: _849  and  _850
REMARK  343  A    between atoms: _850  and  _851
REMARK  344  A    between atoms: _860  and  _862
REMARK  345  A    between atoms: _862  and  _863
REMARK  346  A    between atoms: _862  and  _865
REMARK  347  A    between atoms: _865  and  _866
REMARK  348  A    between atoms: _871  and  _872
REMARK  349  A    between atoms: _874  and  _876
REMARK  350  A    between atoms: _876  and  _877
REMARK  351  A    between atoms: _876  and  _879
REMARK  352  A    between atoms: _879  and  _880
REMARK  353  A    between atoms: _880  and  _881
REMARK  354  A    between atoms: _886  and  _888
REMARK  355  A    between atoms: _888  and  _889
REMARK  356  A    between atoms: _888  and  _891
REMARK  357  A    between atoms: _891  and  _892
REMARK  358  A    between atoms: _895  and  _897
REMARK  359  A    between atoms: _897  and  _898
REMARK  360  A    between atoms: _897  and  _900
REMARK  361  A    between atoms: _900  and  _901
REMARK  362  A    between atoms: _903  and  _905
REMARK  363  A    between atoms: _905  and  _906
REMARK  364  A    between atoms: _905  and  _908
REMARK  365  A    between atoms: _908  and  _909
REMARK  366  A    between atoms: _911  and  _913
REMARK  367  A    between atoms: _913  and  _914
REMARK  368  A    between atoms: _913  and  _916
REMARK  369  A    between atoms: _916  and  _917
REMARK  370  A    between atoms: _923  and  _925
REMARK  371  A    between atoms: _925  and  _926
REMARK  372  A    between atoms: _925  and  _928
REMARK  373  A    between atoms: _928  and  _929
REMARK  374  A    between atoms: _929  and  _930
REMARK  375  A    between atoms: _930  and  _931
REMARK  376  A    between atoms: _940  and  _942
REMARK  377  A    between atoms: _942  and  _943
REMARK  378  A    between atoms: _942  and  _945
REMARK  379  A    between atoms: _945  and  _946
REMARK  380  A    between atoms: _946  and  _947
REMARK  381  A    between atoms: _947  and  _948
REMARK  382  A    between atoms: _957  and  _959
REMARK  383  A    between atoms: _959  and  _960
REMARK  384  A    between atoms: _962  and  _964
REMARK  385  A    between atoms: _964  and  _965
REMARK  386  A    between atoms: _964  and  _967
REMARK  387  A    between atoms: _967  and  _968
REMARK  388  A    between atoms: _974  and  _975
REMARK  389  A    between atoms: _980  and  _982
REMARK  390  A    between atoms: _982  and  _983
REMARK  391  A    between atoms: _982  and  _985
REMARK  392  A    between atoms: _985  and  _986
REMARK  393  A    between atoms: _996  and  _998
REMARK  394  A    between atoms: _998  and  _999
REMARK  395  A    between atoms: _998  and  _1001
REMARK  396  A    between atoms: _1001  and  _1002
REMARK  397  A    between atoms: _1002  and  _1003
REMARK  398  A    between atoms: _1003  and  _1004
REMARK  399  A    between atoms: _1013  and  _1015
REMARK  400  A    between atoms: _1015  and  _1016
REMARK  401  A    between atoms: _1015  and  _1018
REMARK  402  A    between atoms: _1018  and  _1019
REMARK  403  A    between atoms: _1021  and  _1023
REMARK  404  A    between atoms: _1023  and  _1024
REMARK  405  A    between atoms: _1027  and  _1029
REMARK  406  A    between atoms: _1029  and  _1030
REMARK  407  A    between atoms: _1029  and  _1032
REMARK  408  A    between atoms: _1032  and  _1033
REMARK  409  A    between atoms: _1036  and  _1038
REMARK  410  A    between atoms: _1038  and  _1039
REMARK  411  A    between atoms: _1038  and  _1041
REMARK  412  A    between atoms: _1041  and  _1042
REMARK  413  A    between atoms: _1042  and  _1043
REMARK  414  A    between atoms: _1043  and  _1044
REMARK  415  A    between atoms: _1053  and  _1055
REMARK  416  A    between atoms: _1055  and  _1056
REMARK  417  A    between atoms: _1055  and  _1058
REMARK  418  A    between atoms: _1061  and  _1063
REMARK  419  A    between atoms: _1063  and  _1064
REMARK  420  A    between atoms: _1066  and  _1068
REMARK  421  A    between atoms: _1068  and  _1069
REMARK  422  A    between atoms: _1068  and  _1071
REMARK  423  A    between atoms: _1071  and  _1072
REMARK                            x       y       z     vdW  Elec       q    Type
REMARK                         _______ _______ _______ _____ _____    ______ ____
ROOT
ATOM      1  O   HOH     1      26.109  35.370  54.400  0.00  0.00    +0.000 OA
ENDROOT
TORSDOF 0
REMARK  Name = ../refined-set-2016/1fo0/1fo0_pocket.pdb
REMARK  423 active torsions:
REMARK  status: ('A' for Active; 'I' for Inactive)
REMARK    1  A    between atoms: _1  and  _3
REMARK    2  A    between atoms: _3  and  _4
REMARK    3  A    between atoms: _3  and  _6
REMARK    4  A    between atoms: _6  and  _7
REMARK    5  A    between atoms: _10  and  _12
REMARK    6  A    between atoms: _12  and  _13
REMARK    7  A    between atoms: _12  and  _15
REMARK    8  A    between atoms: _15  and  _16
REMARK    9  A    between atoms: _16  and  _17
REMARK   10  A    between atoms: _17  and  _18
REMARK   11  A    between atoms: _27  and  _29
REMARK   12  A    between atoms: _29  and  _30
REMARK   13  A    between atoms: _29  and  _32
REMARK   14  A    between atoms: _32  and  _33
REMARK   15  A    between atoms: _38  and  _39
REMARK   16  A    between atoms: _41  and  _43
REMARK   17  A    between atoms: _43  and  _44
REMARK   18  A    between atoms: _43  and  _46
REMARK   19  A    between atoms: _46  and  _47
REMARK   20  A    between atoms: _53  and  _55
REMARK   21  A    between atoms: _55  and  _56
REMARK   22  A    between atoms: _55  and  _58
REMARK   23  A    between atoms: _61  and  _63
REMARK   24  A    between atoms: _63  and  _64
REMARK   25  A    between atoms: _63  and  _66
REMARK   26  A    between atoms: _66  and  _67
REMARK   27  A    between atoms: _70  and  _72
REMARK   28  A    between atoms: _72  and  _73
REMARK   29  A    between atoms: _72  and  _75
REMARK   30  A    between atoms: _75  and  _76
REMARK   31  A    between atoms: _81  and  _82
REMARK   32  A    between atoms: _84  and  _86
REMARK   33  A    between atoms: _86  and  _87
REMARK   34  A    between atoms: _86  and  _89
REMARK   35  A    between atoms: _89  and  _90
REMARK   36  A    between atoms: _90  and  _91
REMARK   37  A    between atoms: _93  and  _95
REMARK   38  A    between atoms: _95  and  _96
REMARK   39  A    between atoms: _95  and  _98
REMARK   40  A    between atoms: _98  and  _99
REMARK   41  A    between atoms: _99  and  _100
REMARK   42  A    between atoms: _103  and  _105
REMARK   43  A    between atoms: _105  and  _106
REMARK   44  A    between atoms: _105  and  _108
REMARK   45  A    between atoms: _111  and  _113
REMARK   46  A    between atoms: _113  and  _114
REMARK   47  A    between atoms: _116  and  _118
REMARK   48  A    between atoms: _118  and  _119
REMARK   49  A    between atoms: _118  and  _121
REMARK   50  A    between atoms: _121  and  _122
REMARK   51  A    between atoms: _128  and  _130
REMARK   52  A    between atoms: _130  and  _131
REMARK   53  A    between atoms: _130  and  _133
REMARK   54  A    between atoms: _136  and  _138
REMARK   55  A    between atoms: _138  and  _139
REMARK   56  A    between atoms: _138  and  _141
REMARK   57  A    between atoms: _141  and  _142
REMARK   58  A    between atoms: _148  and  _150
REMARK   59  A    between atoms: _150  and  _151
REMARK   60  A    between atoms: _150  and  _153
REMARK   61  A    between atoms: _153  and  _154
REMARK   62  A    between atoms: _159  and  _160
REMARK   63  A    between atoms: _162  and  _164
REMARK   64  A    between atoms: _164  and  _165
REMARK   65  A    between atoms: _164  and  _167
REMARK   66  A    between atoms: _167  and  _168
REMARK   67  A    between atoms: _168  and  _169
REMARK   68  A    between atoms: _171  and  _173
REMARK   69  A    between atoms: _173  and  _174
REMARK   70  A    between atoms: _173  and  _176
REMARK   71  A    between atoms: _176  and  _177
REMARK   72  A    between atoms: _177  and  _178
REMARK   73  A    between atoms: _181  and  _183
REMARK   74  A    between atoms: _183  and  _184
REMARK   75  A    between atoms: _183  and  _186
REMARK   76  A    between atoms: _186  and  _187
REMARK   77  A    between atoms: _192  and  _193
REMARK   78  A    between atoms: _195  and  _197
REMARK   79  A    between atoms: _197  and  _198
REMARK   80  A    between atoms: _197  and  _200
REMARK   81  A    between atoms: _200  and  _201
REMARK   82  A    between atoms: _201  and  _202
REMARK   83  A    between atoms: _202  and  _203
REMARK   84  A    between atoms: _212  and  _214
REMARK   85  A    between atoms: _214  and  _215
REMARK   86  A    between atoms: _214  and  _217
REMARK   87  A    between atoms: _217  and  _218
REMARK   88  A    between atoms: _218  and  _219
REMARK   89  A    between atoms: _222  and  _224
REMARK   90  A    between atoms: _224  and  _225
REMARK   91  A    between atoms: _224  and  _227
REMARK   92  A    between atoms: _227  and  _228
REMARK   93  A    between atoms: _228  and  _229
REMARK   94  A    between atoms: _234  and  _236
REMARK   95  A    between atoms: _236  and  _237
REMARK   96  A    between atoms: _236  and  _239
REMARK   97  A    between atoms: _239  and  _240
REMARK   98  A    between atoms: _240  and  _241
REMARK   99  A    between atoms: _241  and  _242
REMARK  100  A    between atoms: _242  and  _243
REMARK  101  A    between atoms: _247  and  _249
REMARK  102  A    between atoms: _249  and  _250
REMARK  103  A    between atoms: _253  and  _255
REMARK  104  A    between atoms: _255  and  _256
REMARK  105  A    between atoms: _255  and  _258
REMARK  106  A    between atoms: _258  and  _259
REMARK  107  A    between atoms: _259  and  _260
REMARK  108  A    between atoms: _260  and  _261
REMARK  109  A    between atoms: _261  and  _262
REMARK  110  A    between atoms: _266  and  _268
REMARK  111  A    between atoms: _268  and  _269
REMARK  112  A    between atoms: _271  and  _273
REMARK  113  A    between atoms: _273  and  _274
REMARK  114  A    between atoms: _273  and  _276
REMARK  115  A    between atoms: _276  and  _277
REMARK  116  A    between atoms: _282  and  _284
REMARK  117  A    between atoms: _284  and  _285
REMARK  118  A    between atoms: _284  and  _287
REMARK  119  A    between atoms: _287  and  _288
REMARK  120  A    between atoms: _288  and  _289
REMARK  121  A    between atoms: _292  and  _294
REMARK  122  A    between atoms: _294  and  _295
REMARK  123  A    between atoms: _294  and  _297
REMARK  124  A    between atoms: _297  and  _298
REMARK  125  A    between atoms: _298  and  _299
REMARK  126  A    between atoms: _304  and  _306
REMARK  127  A    between atoms: _306  and  _307
REMARK  128  A    between atoms: _306  and  _309
REMARK  129  A    between atoms: _309  and  _310
REMARK  130  A    between atoms: _312  and  _314
REMARK  131  A    between atoms: _314  and  _315
REMARK  132  A    between atoms: _314  and  _317
REMARK  133  A    between atoms: _317  and  _318
REMARK  134  A    between atoms: _324  and  _326
REMARK  135  A    between atoms: _326  and  _327
REMARK  136  A    between atoms: _326  and  _329
REMARK  137  A    between atoms: _329  and  _330
REMARK  138  A    between atoms: _330  and  _331
REMARK  139  A    between atoms: _331  and  _332
REMARK  140  A    between atoms: _341  and  _343
REMARK  141  A    between atoms: _343  and  _344
REMARK  142  A    between atoms: _343  and  _346
REMARK  143  A    between atoms: _349  and  _351
REMARK  144  A    between atoms: _351  and  _352
REMARK  145  A    between atoms: _351  and  _354
REMARK  146  A    between atoms: _354  and  _355
REMARK  147  A    between atoms: _358  and  _360
REMARK  148  A    between atoms: _360  and  _361
REMARK  149  A    between atoms: _360  and  _363
REMARK  150  A    between atoms: _363  and  _364
REMARK  151  A    between atoms: _367  and  _369
REMARK  152  A    between atoms: _369  and  _370
REMARK  153  A    between atoms: _369  and  _372
REMARK  154  A    between atoms: _372  and  _373
REMARK  155  A    between atoms: _373  and  _374
REMARK  156  A    between atoms: _374  and  _375
REMARK  157  A    between atoms: _384  and  _386
REMARK  158  A    between atoms: _386  and  _387
REMARK  159  A    between atoms: _386  and  _389
REMARK  160  A    between atoms: _389  and  _390
REMARK  161  A    between atoms: _393  and  _395
REMARK  162  A    between atoms: _395  and  _396
REMARK  163  A    between atoms: _395  and  _398
REMARK  164  A    between atoms: _398  and  _399
REMARK  165  A    between atoms: _402  and  _404
REMARK  166  A    between atoms: _404  and  _405
REMARK  167  A    between atoms: _404  and  _407
REMARK  168  A    between atoms: _407  and  _408
REMARK  169  A    between atoms: _411  and  _413
REMARK  170  A    between atoms: _413  and  _414
REMARK  171  A    between atoms: _413  and  _416
REMARK  172  A    between atoms: _416  and  _417
REMARK  173  A    between atoms: _422  and  _423
REMARK  174  A    between atoms: _425  and  _427
REMARK  175  A    between atoms: _427  and  _428
REMARK  176  A    between atoms: _427  and  _430
REMARK  177  A    between atoms: _430  and  _431
REMARK  178  A    between atoms: _436  and  _437
REMARK  179  A    between atoms: _439  and  _441
REMARK  180  A    between atoms: _441  and  _442
REMARK  181  A    between atoms: _441  and  _444
REMARK  182  A    between atoms: _444  and  _445
REMARK  183  A    between atoms: _448  and  _450
REMARK  184  A    between atoms: _450  and  _451
REMARK  185  A    between atoms: _450  and  _453
REMARK  186  A    between atoms: _456  and  _458
REMARK  187  A    between atoms: _458  and  _459
REMARK  188  A    between atoms: _458  and  _461
REMARK  189  A    between atoms: _461  and  _462
REMARK  190  A    between atoms: _465  and  _467
REMARK  191  A    between atoms: _467  and  _468
REMARK  192  A    between atoms: _467  and  _470
REMARK  193  A    between atoms: _470  and  _471
REMARK  194  A    between atoms: _473  and  _475
REMARK  195  A    between atoms: _475  and  _476
REMARK  196  A    between atoms: _478  and  _480
REMARK  197  A    between atoms: _480  and  _481
REMARK  198  A    between atoms: _480  and  _483
REMARK  199  A    between atoms: _483  and  _484
REMARK  200  A    between atoms: _489  and  _490
REMARK  201  A    between atoms: _492  and  _494
REMARK  202  A    between atoms: _494  and  _495
REMARK  203  A    between atoms: _494  and  _497
REMARK  204  A    between atoms: _497  and  _498
REMARK  205  A    between atoms: _498  and  _499
REMARK  206  A    between atoms: _504  and  _506
REMARK  207  A    between atoms: _506  and  _507
REMARK  208  A    between atoms: _506  and  _509
REMARK  209  A    between atoms: _509  and  _510
REMARK  210  A    between atoms: _510  and  _511
REMARK  211  A    between atoms: _516  and  _518
REMARK  212  A    between atoms: _518  and  _519
REMARK  213  A    between atoms: _518  and  _521
REMARK  214  A    between atoms: _521  and  _522
REMARK  215  A    between atoms: _527  and  _528
REMARK  216  A    between atoms: _530  and  _532
REMARK  217  A    between atoms: _532  and  _533
REMARK  218  A    between atoms: _532  and  _535
REMARK  219  A    between atoms: _535  and  _536
REMARK  220  A    between atoms: _541  and  _542
REMARK  221  A    between atoms: _544  and  _546
REMARK  222  A    between atoms: _546  and  _547
REMARK  223  A    between atoms: _546  and  _549
REMARK  224  A    between atoms: _549  and  _550
REMARK  225  A    between atoms: _555  and  _556
REMARK  226  A    between atoms: _558  and  _560
REMARK  227  A    between atoms: _560  and  _561
REMARK  228  A    between atoms: _560  and  _563
REMARK  229  A    between atoms: _563  and  _564
REMARK  230  A    between atoms: _567  and  _569
REMARK  231  A    between atoms: _569  and  _570
REMARK  232  A    between atoms: _569  and  _572
REMARK  233  A    between atoms: _572  and  _573
REMARK  234  A    between atoms: _583  and  _585
REMARK  235  A    between atoms: _585  and  _586
REMARK  236  A    between atoms: _589  and  _591
REMARK  237  A    between atoms: _591  and  _592
REMARK  238  A    between atoms: _595  and  _597
REMARK  239  A    between atoms: _597  and  _598
REMARK  240  A    between atoms: _597  and  _600
REMARK  241  A    between atoms: _600  and  _601
REMARK  242  A    between atoms: _604  and  _606
REMARK  243  A    between atoms: _606  and  _607
REMARK  244  A    between atoms: _606  and  _609
REMARK  245  A    between atoms: _609  and  _610
REMARK  246  A    between atoms: _613  and  _615
REMARK  247  A    between atoms: _615  and  _616
REMARK  248  A    between atoms: _615  and  _618
REMARK  249  A    between atoms: _618  and  _619
REMARK  250  A    between atoms: _622  and  _624
REMARK  251  A    between atoms: _624  and  _625
REMARK  252  A    between atoms: _624  and  _627
REMARK  253  A    between atoms: _627  and  _628
REMARK  254  A    between atoms: _628  and  _629
REMARK  255  A    between atoms: _629  and  _630
REMARK  256  A    between atoms: _630  and  _631
REMARK  257  A    between atoms: _635  and  _637
REMARK  258  A    between atoms: _637  and  _638
REMARK  259  A    between atoms: _637  and  _640
REMARK  260  A    between atoms: _640  and  _641
REMARK  261  A    between atoms: _646  and  _648
REMARK  262  A    between atoms: _648  and  _649
REMARK  263  A    between atoms: _648  and  _651
REMARK  264  A    between atoms: _651  and  _652
REMARK  265  A    between atoms: _652  and  _653
REMARK  266  A    between atoms: _653  and  _654
REMARK  267  A    between atoms: _654  and  _655
REMARK  268  A    between atoms: _659  and  _661
REMARK  269  A    between atoms: _661  and  _662
REMARK  270  A    between atoms: _661  and  _664
REMARK  271  A    between atoms: _664  and  _665
REMARK  272  A    between atoms: _675  and  _677
REMARK  273  A    between atoms: _677  and  _678
REMARK  274  A    between atoms: _681  and  _683
REMARK  275  A    between atoms: _683  and  _684
REMARK  276  A    between atoms: _686  and  _688
REMARK  277  A    between atoms: _688  and  _689
REMARK  278  A    between atoms: _688  and  _691
REMARK  279  A    between atoms: _691  and  _692
REMARK  280  A    between atoms: _692  and  _693
REMARK  281  A    between atoms: _696  and  _698
REMARK  282  A    between atoms: _698  and  _699
REMARK  283  A    between atoms: _702  and  _704
REMARK  284  A    between atoms: _704  and  _705
REMARK  285  A    between atoms: _704  and  _707
REMARK  286  A    between atoms: _707  and  _708
REMARK  287  A    between atoms: _708  and  _709
REMARK  288  A    between atoms: _712  and  _714
REMARK  289  A    between atoms: _714  and  _715
REMARK  290  A    between atoms: _714  and  _717
REMARK  291  A    between atoms: _717  and  _718
REMARK  292  A    between atoms: _718  and  _719
REMARK  293  A    between atoms: _719  and  _720
REMARK  294  A    between atoms: _729  and  _731
REMARK  295  A    between atoms: _731  and  _732
REMARK  296  A    between atoms: _731  and  _734
REMARK  297  A    between atoms: _734  and  _735
REMARK  298  A    between atoms: _738  and  _740
REMARK  299  A    between atoms: _740  and  _741
REMARK  300  A    between atoms: _740  and  _743
REMARK  301  A    between atoms: _743  and  _744
REMARK  302  A    between atoms: _744  and  _745
REMARK  303  A    between atoms: _745  and  _746
REMARK  304  A    between atoms: _755  and  _757
REMARK  305  A    between atoms: _757  and  _758
REMARK  306  A    between atoms: _761  and  _763
REMARK  307  A    between atoms: _763  and  _764
REMARK  308  A    between atoms: _763  and  _766
REMARK  309  A    between atoms: _766  and  _767
REMARK  310  A    between atoms: _772  and  _773
REMARK  311  A    between atoms: _775  and  _777
REMARK  312  A    between atoms: _777  and  _778
REMARK  313  A    between atoms: _777  and  _780
REMARK  314  A    between atoms: _780  and  _781
REMARK  315  A    between atoms: _784  and  _786
REMARK  316  A    between atoms: _786  and  _787
REMARK  317  A    between atoms: _786  and  _789
REMARK  318  A    between atoms: _789  and  _790
REMARK  319  A    between atoms: _793  and  _795
REMARK  320  A    between atoms: _795  and  _796
REMARK  321  A    between atoms: _795  and  _798
REMARK  322  A    between atoms: _800  and  _802
REMARK  323  A    between atoms: _802  and  _803
REMARK  324  A    between atoms: _802  and  _805
REMARK  325  A    between atoms: _808  and  _810
REMARK  326  A    between atoms: _810  and  _811
REMARK  327  A    between atoms: _810  and  _813
REMARK  328  A    between atoms: _813  and  _814
REMARK  329  A    between atoms: _814  and  _815
REMARK  330  A    between atoms: _818  and  _820
REMARK  331  A    between atoms: _820  and  _821
REMARK  332  A    between atoms: _820  and  _823
REMARK  333  A    between atoms: _823  and  _824
REMARK  334  A    between atoms: _834  and  _836
REMARK  335  A    between atoms: _836  and  _837
REMARK  336  A    between atoms: _836  and  _839
REMARK  337  A    between atoms: _839  and  _840
REMARK  338  A    between atoms: _843  and  _845
REMARK  339  A    between atoms: _845  and  _846
REMARK  340  A    between atoms: _845  and  _848
REMARK  341  A    between atoms: _848  and  _849
REMARK  342  A    between atoms: _849  and  _850
REMARK  343  A    between atoms: _850  and  _851
REMARK  344  A    between atoms: _860  and  _862
REMARK  345  A    between atoms: _862  and  _863
REMARK  346  A    between atoms: _862  and  _865
REMARK  347  A    between atoms: _865  and  _866
REMARK  348  A    between atoms: _871  and  _872
REMARK  349  A    between atoms: _874  and  _876
REMARK  350  A    between atoms: _876  and  _877
REMARK  351  A    between atoms: _876  and  _879
REMARK  352  A    between atoms: _879  and  _880
REMARK  353  A    between atoms: _880  and  _881
REMARK  354  A    between atoms: _886  and  _888
REMARK  355  A    between atoms: _888  and  _889
REMARK  356  A    between atoms: _888  and  _891
REMARK  357  A    between atoms: _891  and  _892
REMARK  358  A    between atoms: _895  and  _897
REMARK  359  A    between atoms: _897  and  _898
REMARK  360  A    between atoms: _897  and  _900
REMARK  361  A    between atoms: _900  and  _901
REMARK  362  A    between atoms: _903  and  _905
REMARK  363  A    between atoms: _905  and  _906
REMARK  364  A    between atoms: _905  and  _908
REMARK  365  A    between atoms: _908  and  _909
REMARK  366  A    between atoms: _911  and  _913
REMARK  367  A    between atoms: _913  and  _914
REMARK  368  A    between atoms: _913  and  _916
REMARK  369  A    between atoms: _916  and  _917
REMARK  370  A    between atoms: _923  and  _925
REMARK  371  A    between atoms: _925  and  _926
REMARK  372  A    between atoms: _925  and  _928
REMARK  373  A    between atoms: _928  and  _929
REMARK  374  A    between atoms: _929  and  _930
REMARK  375  A    between atoms: _930  and  _931
REMARK  376  A    between atoms: _940  and  _942
REMARK  377  A    between atoms: _942  and  _943
REMARK  378  A    between atoms: _942  and  _945
REMARK  379  A    between atoms: _945  and  _946
REMARK  380  A    between atoms: _946  and  _947
REMARK  381  A    between atoms: _947  and  _948
REMARK  382  A    between atoms: _957  and  _959
REMARK  383  A    between atoms: _959  and  _960
REMARK  384  A    between atoms: _962  and  _964
REMARK  385  A    between atoms: _964  and  _965
REMARK  386  A    between atoms: _964  and  _967
REMARK  387  A    between atoms: _967  and  _968
REMARK  388  A    between atoms: _974  and  _975
REMARK  389  A    between atoms: _980  and  _982
REMARK  390  A    between atoms: _982  and  _983
REMARK  391  A    between atoms: _982  and  _985
REMARK  392  A    between atoms: _985  and  _986
REMARK  393  A    between atoms: _996  and  _998
REMARK  394  A    between atoms: _998  and  _999
REMARK  395  A    between atoms: _998  and  _1001
REMARK  396  A    between atoms: _1001  and  _1002
REMARK  397  A    between atoms: _1002  and  _1003
REMARK  398  A    between atoms: _1003  and  _1004
REMARK  399  A    between atoms: _1013  and  _1015
REMARK  400  A    between atoms: _1015  and  _1016
REMARK  401  A    between atoms: _1015  and  _1018
REMARK  402  A    between atoms: _1018  and  _1019
REMARK  403  A    between atoms: _1021  and  _1023
REMARK  404  A    between atoms: _1023  and  _1024
REMARK  405  A    between atoms: _1027  and  _1029
REMARK  406  A    between atoms: _1029  and  _1030
REMARK  407  A    between atoms: _1029  and  _1032
REMARK  408  A    between atoms: _1032  and  _1033
REMARK  409  A    between atoms: _1036  and  _1038
REMARK  410  A    between atoms: _1038  and  _1039
REMARK  411  A    between atoms: _1038  and  _1041
REMARK  412  A    between atoms: _1041  and  _1042
REMARK  413  A    between atoms: _1042  and  _1043
REMARK  414  A    between atoms: _1043  and  _1044
REMARK  415  A    between atoms: _1053  and  _1055
REMARK  416  A    between atoms: _1055  and  _1056
REMARK  417  A    between atoms: _1055  and  _1058
REMARK  418  A    between atoms: _1061  and  _1063
REMARK  419  A    between atoms: _1063  and  _1064
REMARK  420  A    between atoms: _1066  and  _1068
REMARK  421  A    between atoms: _1068  and  _1069
REMARK  422  A    between atoms: _1068  and  _1071
REMARK  423  A    between atoms: _1071  and  _1072
REMARK                            x       y       z     vdW  Elec       q    Type
REMARK                         _______ _______ _______ _____ _____    ______ ____
ROOT
ATOM      1  O   HOH     1      22.841  35.540  56.470  0.00  0.00    +0.000 OA
ENDROOT
TORSDOF 0
