REMARK  Name = ../refined-set-2016/1toi/1toi_pocket.pdb
REMARK  148 active torsions:
REMARK  status: ('A' for Active; 'I' for Inactive)
REMARK    1  A    between atoms: _1  and  _3
REMARK    2  A    between atoms: _3  and  _4
REMARK    3  A    between atoms: _3  and  _6
REMARK    4  A    between atoms: _6  and  _7
REMARK    5  A    between atoms: _10  and  _12
REMARK    6  A    between atoms: _12  and  _13
REMARK    7  A    between atoms: _12  and  _15
REMARK    8  A    between atoms: _15  and  _16
REMARK    9  A    between atoms: _19  and  _21
REMARK   10  A    between atoms: _21  and  _22
REMARK   11  A    between atoms: _21  and  _24
REMARK   12  A    between atoms: _24  and  _25
REMARK   13  A    between atoms: _28  and  _30
REMARK   14  A    between atoms: _30  and  _31
REMARK   15  A    between atoms: _33  and  _35
REMARK   16  A    between atoms: _35  and  _36
REMARK   17  A    between atoms: _35  and  _38
REMARK   18  A    between atoms: _38  and  _39
REMARK   19  A    between atoms: _42  and  _44
REMARK   20  A    between atoms: _44  and  _45
REMARK   21  A    between atoms: _44  and  _47
REMARK   22  A    between atoms: _47  and  _48
REMARK   23  A    between atoms: _51  and  _53
REMARK   24  A    between atoms: _53  and  _54
REMARK   25  A    between atoms: _56  and  _58
REMARK   26  A    between atoms: _58  and  _59
REMARK   27  A    between atoms: _58  and  _61
REMARK   28  A    between atoms: _61  and  _62
REMARK   29  A    between atoms: _65  and  _67
REMARK   30  A    between atoms: _67  and  _68
REMARK   31  A    between atoms: _70  and  _72
REMARK   32  A    between atoms: _72  and  _73
REMARK   33  A    between atoms: _72  and  _75
REMARK   34  A    between atoms: _75  and  _76
REMARK   35  A    between atoms: _79  and  _81
REMARK   36  A    between atoms: _81  and  _82
REMARK   37  A    between atoms: _84  and  _86
REMARK   38  A    between atoms: _86  and  _87
REMARK   39  A    between atoms: _86  and  _89
REMARK   40  A    between atoms: _89  and  _90
REMARK   41  A    between atoms: _92  and  _94
REMARK   42  A    between atoms: _94  and  _95
REMARK   43  A    between atoms: _97  and  _99
REMARK   44  A    between atoms: _99  and  _100
REMARK   45  A    between atoms: _99  and  _102
REMARK   46  A    between atoms: _102  and  _103
REMARK   47  A    between atoms: _106  and  _108
REMARK   48  A    between atoms: _108  and  _109
REMARK   49  A    between atoms: _108  and  _111
REMARK   50  A    between atoms: _111  and  _112
REMARK   51  A    between atoms: _123  and  _124
REMARK   52  A    between atoms: _129  and  _131
REMARK   53  A    between atoms: _131  and  _132
REMARK   54  A    between atoms: _131  and  _134
REMARK   55  A    between atoms: _134  and  _135
REMARK   56  A    between atoms: _140  and  _142
REMARK   57  A    between atoms: _142  and  _143
REMARK   58  A    between atoms: _142  and  _145
REMARK   59  A    between atoms: _145  and  _146
REMARK   60  A    between atoms: _151  and  _153
REMARK   61  A    between atoms: _153  and  _154
REMARK   62  A    between atoms: _153  and  _156
REMARK   63  A    between atoms: _156  and  _157
REMARK   64  A    between atoms: _163  and  _164
REMARK   65  A    between atoms: _169  and  _171
REMARK   66  A    between atoms: _171  and  _172
REMARK   67  A    between atoms: _175  and  _177
REMARK   68  A    between atoms: _177  and  _178
REMARK   69  A    between atoms: _177  and  _180
REMARK   70  A    between atoms: _180  and  _181
REMARK   71  A    between atoms: _186  and  _187
REMARK   72  A    between atoms: _189  and  _191
REMARK   73  A    between atoms: _191  and  _192
REMARK   74  A    between atoms: _191  and  _194
REMARK   75  A    between atoms: _194  and  _195
REMARK   76  A    between atoms: _197  and  _199
REMARK   77  A    between atoms: _199  and  _200
REMARK   78  A    between atoms: _199  and  _202
REMARK   79  A    between atoms: _202  and  _203
REMARK   80  A    between atoms: _210  and  _211
REMARK   81  A    between atoms: _211  and  _227
REMARK   82  A    between atoms: _212  and  _214
REMARK   83  A    between atoms: _214  and  _215
REMARK   84  A    between atoms: _215  and  _216
REMARK   85  A    between atoms: _220  and  _222
REMARK   86  A    between atoms: _222  and  _223
REMARK   87  A    between atoms: _222  and  _230
REMARK   88  A    between atoms: _223  and  _224
REMARK   89  A    between atoms: _224  and  _225
REMARK   90  A    between atoms: _225  and  _226
REMARK   91  A    between atoms: _226  and  _227
REMARK   92  A    between atoms: _232  and  _234
REMARK   93  A    between atoms: _234  and  _235
REMARK   94  A    between atoms: _234  and  _237
REMARK   95  A    between atoms: _237  and  _238
REMARK   96  A    between atoms: _243  and  _244
REMARK   97  A    between atoms: _246  and  _248
REMARK   98  A    between atoms: _248  and  _249
REMARK   99  A    between atoms: _248  and  _251
REMARK  100  A    between atoms: _251  and  _252
REMARK  101  A    between atoms: _252  and  _253
REMARK  102  A    between atoms: _253  and  _254
REMARK  103  A    between atoms: _263  and  _265
REMARK  104  A    between atoms: _265  and  _266
REMARK  105  A    between atoms: _265  and  _268
REMARK  106  A    between atoms: _268  and  _269
REMARK  107  A    between atoms: _269  and  _270
REMARK  108  A    between atoms: _272  and  _274
REMARK  109  A    between atoms: _274  and  _275
REMARK  110  A    between atoms: _274  and  _277
REMARK  111  A    between atoms: _277  and  _278
REMARK  112  A    between atoms: _284  and  _286
REMARK  113  A    between atoms: _286  and  _287
REMARK  114  A    between atoms: _286  and  _289
REMARK  115  A    between atoms: _292  and  _294
REMARK  116  A    between atoms: _294  and  _295
REMARK  117  A    between atoms: _294  and  _297
REMARK  118  A    between atoms: _297  and  _298
REMARK  119  A    between atoms: _298  and  _299
REMARK  120  A    between atoms: _299  and  _300
REMARK  121  A    between atoms: _309  and  _311
REMARK  122  A    between atoms: _311  and  _312
REMARK  123  A    between atoms: _311  and  _314
REMARK  124  A    between atoms: _314  and  _315
REMARK  125  A    between atoms: _320  and  _322
REMARK  126  A    between atoms: _322  and  _323
REMARK  127  A    between atoms: _322  and  _325
REMARK  128  A    between atoms: _325  and  _326
REMARK  129  A    between atoms: _331  and  _332
REMARK  130  A    between atoms: _334  and  _336
REMARK  131  A    between atoms: _336  and  _337
REMARK  132  A    between atoms: _336  and  _339
REMARK  133  A    between atoms: _339  and  _340
REMARK  134  A    between atoms: _340  and  _341
REMARK  135  A    between atoms: _341  and  _342
REMARK  136  A    between atoms: _351  and  _353
REMARK  137  A    between atoms: _353  and  _354
REMARK  138  A    between atoms: _353  and  _356
REMARK  139  A    between atoms: _356  and  _357
REMARK  140  A    between atoms: _362  and  _363
REMARK  141  A    between atoms: _365  and  _367
REMARK  142  A    between atoms: _367  and  _368
REMARK  143  A    between atoms: _367  and  _370
REMARK  144  A    between atoms: _370  and  _371
REMARK  145  A    between atoms: _373  and  _375
REMARK  146  A    between atoms: _375  and  _376
REMARK  147  A    between atoms: _375  and  _378
REMARK  148  A    between atoms: _378  and  _379
REMARK                            x       y       z     vdW  Elec       q    Type
REMARK                         _______ _______ _______ _____ _____    ______ ____
ROOT
ATOM      1  CA  ASP A   1      67.474  46.463  27.654  0.00  0.00    +0.144 C 
ENDROOT
BRANCH   1   2
ATOM      2  N   ASP A   1      66.537  46.282  26.557  0.00  0.00    -0.239 NA
ATOM      3  H   ASP A   1      66.620  46.888  25.716  0.00  0.00    +0.142 HD
ENDBRANCH   1   2
BRANCH   1   4
ATOM      4  C   ASP A   1      66.786  47.102  28.873  0.00  0.00    +0.225 C 
ATOM      5  O   ASP A   1      66.092  48.102  28.731  0.00  0.00    -0.287 OA
ENDBRANCH   1   4
BRANCH   1   6
ATOM      6  CB  ASP A   1      68.619  47.363  27.204  0.00  0.00    +0.139 C 
BRANCH   6   7
ATOM      7  CG  ASP A   1      69.774  47.333  28.164  0.00  0.00    +0.367 C 
ATOM      8  OD2 ASP A   1      69.786  48.145  29.116  0.00  0.00    -0.246 OA
ATOM      9  OD1 ASP A   1      70.698  46.500  28.054  0.00  0.00    -0.246 OA
ENDBRANCH   6   7
ENDBRANCH   1   6
TORSDOF 4
REMARK  Name = ../refined-set-2016/1toi/1toi_pocket.pdb
REMARK  148 active torsions:
REMARK  status: ('A' for Active; 'I' for Inactive)
REMARK    1  A    between atoms: _1  and  _3
REMARK    2  A    between atoms: _3  and  _4
REMARK    3  A    between atoms: _3  and  _6
REMARK    4  A    between atoms: _6  and  _7
REMARK    5  A    between atoms: _10  and  _12
REMARK    6  A    between atoms: _12  and  _13
REMARK    7  A    between atoms: _12  and  _15
REMARK    8  A    between atoms: _15  and  _16
REMARK    9  A    between atoms: _19  and  _21
REMARK   10  A    between atoms: _21  and  _22
REMARK   11  A    between atoms: _21  and  _24
REMARK   12  A    between atoms: _24  and  _25
REMARK   13  A    between atoms: _28  and  _30
REMARK   14  A    between atoms: _30  and  _31
REMARK   15  A    between atoms: _33  and  _35
REMARK   16  A    between atoms: _35  and  _36
REMARK   17  A    between atoms: _35  and  _38
REMARK   18  A    between atoms: _38  and  _39
REMARK   19  A    between atoms: _42  and  _44
REMARK   20  A    between atoms: _44  and  _45
REMARK   21  A    between atoms: _44  and  _47
REMARK   22  A    between atoms: _47  and  _48
REMARK   23  A    between atoms: _51  and  _53
REMARK   24  A    between atoms: _53  and  _54
REMARK   25  A    between atoms: _56  and  _58
REMARK   26  A    between atoms: _58  and  _59
REMARK   27  A    between atoms: _58  and  _61
REMARK   28  A    between atoms: _61  and  _62
REMARK   29  A    between atoms: _65  and  _67
REMARK   30  A    between atoms: _67  and  _68
REMARK   31  A    between atoms: _70  and  _72
REMARK   32  A    between atoms: _72  and  _73
REMARK   33  A    between atoms: _72  and  _75
REMARK   34  A    between atoms: _75  and  _76
REMARK   35  A    between atoms: _79  and  _81
REMARK   36  A    between atoms: _81  and  _82
REMARK   37  A    between atoms: _84  and  _86
REMARK   38  A    between atoms: _86  and  _87
REMARK   39  A    between atoms: _86  and  _89
REMARK   40  A    between atoms: _89  and  _90
REMARK   41  A    between atoms: _92  and  _94
REMARK   42  A    between atoms: _94  and  _95
REMARK   43  A    between atoms: _97  and  _99
REMARK   44  A    between atoms: _99  and  _100
REMARK   45  A    between atoms: _99  and  _102
REMARK   46  A    between atoms: _102  and  _103
REMARK   47  A    between atoms: _106  and  _108
REMARK   48  A    between atoms: _108  and  _109
REMARK   49  A    between atoms: _108  and  _111
REMARK   50  A    between atoms: _111  and  _112
REMARK   51  A    between atoms: _123  and  _124
REMARK   52  A    between atoms: _129  and  _131
REMARK   53  A    between atoms: _131  and  _132
REMARK   54  A    between atoms: _131  and  _134
REMARK   55  A    between atoms: _134  and  _135
REMARK   56  A    between atoms: _140  and  _142
REMARK   57  A    between atoms: _142  and  _143
REMARK   58  A    between atoms: _142  and  _145
REMARK   59  A    between atoms: _145  and  _146
REMARK   60  A    between atoms: _151  and  _153
REMARK   61  A    between atoms: _153  and  _154
REMARK   62  A    between atoms: _153  and  _156
REMARK   63  A    between atoms: _156  and  _157
REMARK   64  A    between atoms: _163  and  _164
REMARK   65  A    between atoms: _169  and  _171
REMARK   66  A    between atoms: _171  and  _172
REMARK   67  A    between atoms: _175  and  _177
REMARK   68  A    between atoms: _177  and  _178
REMARK   69  A    between atoms: _177  and  _180
REMARK   70  A    between atoms: _180  and  _181
REMARK   71  A    between atoms: _186  and  _187
REMARK   72  A    between atoms: _189  and  _191
REMARK   73  A    between atoms: _191  and  _192
REMARK   74  A    between atoms: _191  and  _194
REMARK   75  A    between atoms: _194  and  _195
REMARK   76  A    between atoms: _197  and  _199
REMARK   77  A    between atoms: _199  and  _200
REMARK   78  A    between atoms: _199  and  _202
REMARK   79  A    between atoms: _202  and  _203
REMARK   80  A    between atoms: _210  and  _211
REMARK   81  A    between atoms: _211  and  _227
REMARK   82  A    between atoms: _212  and  _214
REMARK   83  A    between atoms: _214  and  _215
REMARK   84  A    between atoms: _215  and  _216
REMARK   85  A    between atoms: _220  and  _222
REMARK   86  A    between atoms: _222  and  _223
REMARK   87  A    between atoms: _222  and  _230
REMARK   88  A    between atoms: _223  and  _224
REMARK   89  A    between atoms: _224  and  _225
REMARK   90  A    between atoms: _225  and  _226
REMARK   91  A    between atoms: _226  and  _227
REMARK   92  A    between atoms: _232  and  _234
REMARK   93  A    between atoms: _234  and  _235
REMARK   94  A    between atoms: _234  and  _237
REMARK   95  A    between atoms: _237  and  _238
REMARK   96  A    between atoms: _243  and  _244
REMARK   97  A    between atoms: _246  and  _248
REMARK   98  A    between atoms: _248  and  _249
REMARK   99  A    between atoms: _248  and  _251
REMARK  100  A    between atoms: _251  and  _252
REMARK  101  A    between atoms: _252  and  _253
REMARK  102  A    between atoms: _253  and  _254
REMARK  103  A    between atoms: _263  and  _265
REMARK  104  A    between atoms: _265  and  _266
REMARK  105  A    between atoms: _265  and  _268
REMARK  106  A    between atoms: _268  and  _269
REMARK  107  A    between atoms: _269  and  _270
REMARK  108  A    between atoms: _272  and  _274
REMARK  109  A    between atoms: _274  and  _275
REMARK  110  A    between atoms: _274  and  _277
REMARK  111  A    between atoms: _277  and  _278
REMARK  112  A    between atoms: _284  and  _286
REMARK  113  A    between atoms: _286  and  _287
REMARK  114  A    between atoms: _286  and  _289
REMARK  115  A    between atoms: _292  and  _294
REMARK  116  A    between atoms: _294  and  _295
REMARK  117  A    between atoms: _294  and  _297
REMARK  118  A    between atoms: _297  and  _298
REMARK  119  A    between atoms: _298  and  _299
REMARK  120  A    between atoms: _299  and  _300
REMARK  121  A    between atoms: _309  and  _311
REMARK  122  A    between atoms: _311  and  _312
REMARK  123  A    between atoms: _311  and  _314
REMARK  124  A    between atoms: _314  and  _315
REMARK  125  A    between atoms: _320  and  _322
REMARK  126  A    between atoms: _322  and  _323
REMARK  127  A    between atoms: _322  and  _325
REMARK  128  A    between atoms: _325  and  _326
REMARK  129  A    between atoms: _331  and  _332
REMARK  130  A    between atoms: _334  and  _336
REMARK  131  A    between atoms: _336  and  _337
REMARK  132  A    between atoms: _336  and  _339
REMARK  133  A    between atoms: _339  and  _340
REMARK  134  A    between atoms: _340  and  _341
REMARK  135  A    between atoms: _341  and  _342
REMARK  136  A    between atoms: _351  and  _353
REMARK  137  A    between atoms: _353  and  _354
REMARK  138  A    between atoms: _353  and  _356
REMARK  139  A    between atoms: _356  and  _357
REMARK  140  A    between atoms: _362  and  _363
REMARK  141  A    between atoms: _365  and  _367
REMARK  142  A    between atoms: _367  and  _368
REMARK  143  A    between atoms: _367  and  _370
REMARK  144  A    between atoms: _370  and  _371
REMARK  145  A    between atoms: _373  and  _375
REMARK  146  A    between atoms: _375  and  _376
REMARK  147  A    between atoms: _375  and  _378
REMARK  148  A    between atoms: _378  and  _379
REMARK                            x       y       z     vdW  Elec       q    Type
REMARK                         _______ _______ _______ _____ _____    ______ ____
ROOT
ATOM      1  CA  LEU A   2      68.595  51.620  27.838  0.00  0.00    +0.149 C 
ENDROOT
BRANCH   1   4
ATOM      2  C   ILE A   1      67.921  51.262  30.140  0.00  0.00    +0.238 C 
ATOM      3  O   ILE A   1      67.248  52.299  30.153  0.00  0.00    -0.274 OA
ATOM      4  N   LEU A   2      68.539  50.821  29.053  0.00  0.00    -0.297 N 
ATOM      5  H   LEU A   2      68.993  49.885  29.069  0.00  0.00    +0.150 HD
BRANCH   2   6
ATOM      6  CA  ILE A   1      68.080  50.408  31.393  0.00  0.00    +0.145 C 
BRANCH   6   7
ATOM      7  N   ILE A   1      67.733  49.007  31.154  0.00  0.00    -0.238 NA
ATOM      8  H   ILE A   1      68.418  48.383  30.682  0.00  0.00    +0.142 HD
ENDBRANCH   6   7
BRANCH   6   9
ATOM      9  CB  ILE A   1      69.511  50.529  31.966  0.00  0.00    +0.025 C 
ATOM     10  CG2 ILE A   1      69.942  51.998  32.017  0.00  0.00    +0.002 C 
BRANCH   9  11
ATOM     11  CG1 ILE A   1      69.571  49.880  33.359  0.00  0.00    +0.002 C 
ATOM     12  CD1 ILE A   1      70.958  49.814  33.969  0.00  0.00    +0.000 C 
ENDBRANCH   9  11
ENDBRANCH   6   9
ENDBRANCH   2   6
ENDBRANCH   1   4
BRANCH   1  13
ATOM     13  C   LEU A   2      67.240  51.754  27.154  0.00  0.00    +0.241 C 
ATOM     14  N   GLY A   3      66.375  50.763  27.360  0.00  0.00    -0.295 N 
ATOM     15  H   GLY A   3      66.659  49.974  27.975  0.00  0.00    +0.150 HD
ATOM     16  O   LEU A   2      66.990  52.739  26.465  0.00  0.00    -0.273 OA
BRANCH  14  17
ATOM     17  CA  GLY A   3      65.046  50.738  26.759  0.00  0.00    +0.176 C 
BRANCH  17  18
ATOM     18  C   GLY A   3      64.135  51.806  27.329  0.00  0.00    +0.243 C 
ATOM     19  N   LEU A   4      64.515  52.345  28.493  0.00  0.00    -0.298 N 
ATOM     20  H   LEU A   4      65.376  51.989  28.955  0.00  0.00    +0.150 HD
ATOM     21  O   GLY A   3      63.101  52.128  26.729  0.00  0.00    -0.273 OA
BRANCH  19  22
ATOM     22  CA  LEU A   4      63.756  53.421  29.138  0.00  0.00    +0.137 C 
BRANCH  22  23
ATOM     23  C   LEU A   4      63.705  54.692  28.292  0.00  0.00    +0.227 C 
ATOM     24  O   LEU A   4      62.679  55.368  28.255  0.00  0.00    -0.286 OA
ENDBRANCH  22  23
BRANCH  22  25
ATOM     25  CB  LEU A   4      64.302  53.730  30.541  0.00  0.00    +0.028 C 
BRANCH  25  26
ATOM     26  CG  LEU A   4      64.106  52.658  31.624  0.00  0.00    +0.002 C 
ATOM     27  CD2 LEU A   4      64.744  53.078  32.939  0.00  0.00    +0.000 C 
ATOM     28  CD1 LEU A   4      62.625  52.302  31.826  0.00  0.00    +0.000 C 
ENDBRANCH  25  26
ENDBRANCH  22  25
ENDBRANCH  19  22
ENDBRANCH  17  18
ENDBRANCH  14  17
ENDBRANCH   1  13
BRANCH   1  29
ATOM     29  CB  LEU A   2      69.639  51.052  26.872  0.00  0.00    +0.029 C 
BRANCH  29  30
ATOM     30  CG  LEU A   2      71.080  51.117  27.393  0.00  0.00    +0.002 C 
ATOM     31  CD2 LEU A   2      71.501  52.551  27.763  0.00  0.00    +0.000 C 
ATOM     32  CD1 LEU A   2      72.052  50.485  26.392  0.00  0.00    +0.000 C 
ENDBRANCH  29  30
ENDBRANCH   1  29
TORSDOF 14
REMARK  Name = ../refined-set-2016/1toi/1toi_pocket.pdb
REMARK  148 active torsions:
REMARK  status: ('A' for Active; 'I' for Inactive)
REMARK    1  A    between atoms: _1  and  _3
REMARK    2  A    between atoms: _3  and  _4
REMARK    3  A    between atoms: _3  and  _6
REMARK    4  A    between atoms: _6  and  _7
REMARK    5  A    between atoms: _10  and  _12
REMARK    6  A    between atoms: _12  and  _13
REMARK    7  A    between atoms: _12  and  _15
REMARK    8  A    between atoms: _15  and  _16
REMARK    9  A    between atoms: _19  and  _21
REMARK   10  A    between atoms: _21  and  _22
REMARK   11  A    between atoms: _21  and  _24
REMARK   12  A    between atoms: _24  and  _25
REMARK   13  A    between atoms: _28  and  _30
REMARK   14  A    between atoms: _30  and  _31
REMARK   15  A    between atoms: _33  and  _35
REMARK   16  A    between atoms: _35  and  _36
REMARK   17  A    between atoms: _35  and  _38
REMARK   18  A    between atoms: _38  and  _39
REMARK   19  A    between atoms: _42  and  _44
REMARK   20  A    between atoms: _44  and  _45
REMARK   21  A    between atoms: _44  and  _47
REMARK   22  A    between atoms: _47  and  _48
REMARK   23  A    between atoms: _51  and  _53
REMARK   24  A    between atoms: _53  and  _54
REMARK   25  A    between atoms: _56  and  _58
REMARK   26  A    between atoms: _58  and  _59
REMARK   27  A    between atoms: _58  and  _61
REMARK   28  A    between atoms: _61  and  _62
REMARK   29  A    between atoms: _65  and  _67
REMARK   30  A    between atoms: _67  and  _68
REMARK   31  A    between atoms: _70  and  _72
REMARK   32  A    between atoms: _72  and  _73
REMARK   33  A    between atoms: _72  and  _75
REMARK   34  A    between atoms: _75  and  _76
REMARK   35  A    between atoms: _79  and  _81
REMARK   36  A    between atoms: _81  and  _82
REMARK   37  A    between atoms: _84  and  _86
REMARK   38  A    between atoms: _86  and  _87
REMARK   39  A    between atoms: _86  and  _89
REMARK   40  A    between atoms: _89  and  _90
REMARK   41  A    between atoms: _92  and  _94
REMARK   42  A    between atoms: _94  and  _95
REMARK   43  A    between atoms: _97  and  _99
REMARK   44  A    between atoms: _99  and  _100
REMARK   45  A    between atoms: _99  and  _102
REMARK   46  A    between atoms: _102  and  _103
REMARK   47  A    between atoms: _106  and  _108
REMARK   48  A    between atoms: _108  and  _109
REMARK   49  A    between atoms: _108  and  _111
REMARK   50  A    between atoms: _111  and  _112
REMARK   51  A    between atoms: _123  and  _124
REMARK   52  A    between atoms: _129  and  _131
REMARK   53  A    between atoms: _131  and  _132
REMARK   54  A    between atoms: _131  and  _134
REMARK   55  A    between atoms: _134  and  _135
REMARK   56  A    between atoms: _140  and  _142
REMARK   57  A    between atoms: _142  and  _143
REMARK   58  A    between atoms: _142  and  _145
REMARK   59  A    between atoms: _145  and  _146
REMARK   60  A    between atoms: _151  and  _153
REMARK   61  A    between atoms: _153  and  _154
REMARK   62  A    between atoms: _153  and  _156
REMARK   63  A    between atoms: _156  and  _157
REMARK   64  A    between atoms: _163  and  _164
REMARK   65  A    between atoms: _169  and  _171
REMARK   66  A    between atoms: _171  and  _172
REMARK   67  A    between atoms: _175  and  _177
REMARK   68  A    between atoms: _177  and  _178
REMARK   69  A    between atoms: _177  and  _180
REMARK   70  A    between atoms: _180  and  _181
REMARK   71  A    between atoms: _186  and  _187
REMARK   72  A    between atoms: _189  and  _191
REMARK   73  A    between atoms: _191  and  _192
REMARK   74  A    between atoms: _191  and  _194
REMARK   75  A    between atoms: _194  and  _195
REMARK   76  A    between atoms: _197  and  _199
REMARK   77  A    between atoms: _199  and  _200
REMARK   78  A    between atoms: _199  and  _202
REMARK   79  A    between atoms: _202  and  _203
REMARK   80  A    between atoms: _210  and  _211
REMARK   81  A    between atoms: _211  and  _227
REMARK   82  A    between atoms: _212  and  _214
REMARK   83  A    between atoms: _214  and  _215
REMARK   84  A    between atoms: _215  and  _216
REMARK   85  A    between atoms: _220  and  _222
REMARK   86  A    between atoms: _222  and  _223
REMARK   87  A    between atoms: _222  and  _230
REMARK   88  A    between atoms: _223  and  _224
REMARK   89  A    between atoms: _224  and  _225
REMARK   90  A    between atoms: _225  and  _226
REMARK   91  A    between atoms: _226  and  _227
REMARK   92  A    between atoms: _232  and  _234
REMARK   93  A    between atoms: _234  and  _235
REMARK   94  A    between atoms: _234  and  _237
REMARK   95  A    between atoms: _237  and  _238
REMARK   96  A    between atoms: _243  and  _244
REMARK   97  A    between atoms: _246  and  _248
REMARK   98  A    between atoms: _248  and  _249
REMARK   99  A    between atoms: _248  and  _251
REMARK  100  A    between atoms: _251  and  _252
REMARK  101  A    between atoms: _252  and  _253
REMARK  102  A    between atoms: _253  and  _254
REMARK  103  A    between atoms: _263  and  _265
REMARK  104  A    between atoms: _265  and  _266
REMARK  105  A    between atoms: _265  and  _268
REMARK  106  A    between atoms: _268  and  _269
REMARK  107  A    between atoms: _269  and  _270
REMARK  108  A    between atoms: _272  and  _274
REMARK  109  A    between atoms: _274  and  _275
REMARK  110  A    between atoms: _274  and  _277
REMARK  111  A    between atoms: _277  and  _278
REMARK  112  A    between atoms: _284  and  _286
REMARK  113  A    between atoms: _286  and  _287
REMARK  114  A    between atoms: _286  and  _289
REMARK  115  A    between atoms: _292  and  _294
REMARK  116  A    between atoms: _294  and  _295
REMARK  117  A    between atoms: _294  and  _297
REMARK  118  A    between atoms: _297  and  _298
REMARK  119  A    between atoms: _298  and  _299
REMARK  120  A    between atoms: _299  and  _300
REMARK  121  A    between atoms: _309  and  _311
REMARK  122  A    between atoms: _311  and  _312
REMARK  123  A    between atoms: _311  and  _314
REMARK  124  A    between atoms: _314  and  _315
REMARK  125  A    between atoms: _320  and  _322
REMARK  126  A    between atoms: _322  and  _323
REMARK  127  A    between atoms: _322  and  _325
REMARK  128  A    between atoms: _325  and  _326
REMARK  129  A    between atoms: _331  and  _332
REMARK  130  A    between atoms: _334  and  _336
REMARK  131  A    between atoms: _336  and  _337
REMARK  132  A    between atoms: _336  and  _339
REMARK  133  A    between atoms: _339  and  _340
REMARK  134  A    between atoms: _340  and  _341
REMARK  135  A    between atoms: _341  and  _342
REMARK  136  A    between atoms: _351  and  _353
REMARK  137  A    between atoms: _353  and  _354
REMARK  138  A    between atoms: _353  and  _356
REMARK  139  A    between atoms: _356  and  _357
REMARK  140  A    between atoms: _362  and  _363
REMARK  141  A    between atoms: _365  and  _367
REMARK  142  A    between atoms: _367  and  _368
REMARK  143  A    between atoms: _367  and  _370
REMARK  144  A    between atoms: _370  and  _371
REMARK  145  A    between atoms: _373  and  _375
REMARK  146  A    between atoms: _375  and  _376
REMARK  147  A    between atoms: _375  and  _378
REMARK  148  A    between atoms: _378  and  _379
REMARK                            x       y       z     vdW  Elec       q    Type
REMARK                         _______ _______ _______ _____ _____    ______ ____
ROOT
ATOM      1  CA  ILE A   3      69.216  56.228  33.061  0.00  0.00    +0.149 C 
ENDROOT
BRANCH   1   4
ATOM      2  C   GLY A   2      67.356  55.989  34.655  0.00  0.00    +0.243 C 
ATOM      3  O   GLY A   2      68.112  55.756  35.606  0.00  0.00    -0.273 OA
ATOM      4  N   ILE A   3      67.786  56.200  33.410  0.00  0.00    -0.297 N 
ATOM      5  H   ILE A   3      67.084  56.350  32.657  0.00  0.00    +0.150 HD
BRANCH   2   6
ATOM      6  CA  GLY A   2      65.857  56.046  34.864  0.00  0.00    +0.176 C 
BRANCH   6   9
ATOM      7  C   LEU A   1      65.274  57.533  36.700  0.00  0.00    +0.238 C 
ATOM      8  O   LEU A   1      65.665  56.726  37.544  0.00  0.00    -0.274 OA
ATOM      9  N   GLY A   2      65.419  57.337  35.392  0.00  0.00    -0.296 N 
ATOM     10  H   GLY A   2      65.217  58.116  34.733  0.00  0.00    +0.150 HD
BRANCH   7  11
ATOM     11  CA  LEU A   1      64.600  58.842  37.110  0.00  0.00    +0.145 C 
BRANCH  11  12
ATOM     12  N   LEU A   1      63.663  59.245  36.065  0.00  0.00    -0.238 NA
ATOM     13  H   LEU A   1      62.873  58.616  35.817  0.00  0.00    +0.142 HD
ENDBRANCH  11  12
BRANCH  11  14
ATOM     14  CB  LEU A   1      63.868  58.685  38.460  0.00  0.00    +0.026 C 
BRANCH  14  15
ATOM     15  CG  LEU A   1      63.010  59.853  38.978  0.00  0.00    +0.002 C 
ATOM     16  CD2 LEU A   1      62.259  59.477  40.269  0.00  0.00    +0.000 C 
ATOM     17  CD1 LEU A   1      63.845  61.131  39.206  0.00  0.00    +0.000 C 
ENDBRANCH  14  15
ENDBRANCH  11  14
ENDBRANCH   7  11
ENDBRANCH   6   9
ENDBRANCH   2   6
ENDBRANCH   1   4
BRANCH   1  18
ATOM     18  C   ILE A   3      69.994  57.249  33.904  0.00  0.00    +0.241 C 
ATOM     19  N   GLY A   4      71.193  56.868  34.344  0.00  0.00    -0.295 N 
ATOM     20  H   GLY A   4      71.606  55.979  33.998  0.00  0.00    +0.150 HD
ATOM     21  O   ILE A   3      69.507  58.350  34.166  0.00  0.00    -0.273 OA
BRANCH  19  22
ATOM     22  CA  GLY A   4      71.942  57.684  35.311  0.00  0.00    +0.176 C 
BRANCH  22  23
ATOM     23  C   GLY A   4      72.670  58.871  34.692  0.00  0.00    +0.243 C 
ATOM     24  N   LEU A   5      71.943  59.965  34.490  0.00  0.00    -0.298 N 
ATOM     25  H   LEU A   5      70.915  59.925  34.643  0.00  0.00    +0.150 HD
ATOM     26  O   GLY A   4      73.874  58.810  34.436  0.00  0.00    -0.273 OA
BRANCH  24  27
ATOM     27  CA  LEU A   5      72.551  61.226  34.057  0.00  0.00    +0.137 C 
BRANCH  27  28
ATOM     28  C   LEU A   5      72.372  62.253  35.168  0.00  0.00    +0.227 C 
ATOM     29  O   LEU A   5      71.395  62.185  35.927  0.00  0.00    -0.286 OA
ENDBRANCH  27  28
BRANCH  27  30
ATOM     30  CB  LEU A   5      71.861  61.721  32.787  0.00  0.00    +0.028 C 
BRANCH  30  31
ATOM     31  CG  LEU A   5      72.066  60.768  31.598  0.00  0.00    +0.002 C 
ATOM     32  CD2 LEU A   5      70.712  60.300  31.068  0.00  0.00    +0.000 C 
ATOM     33  CD1 LEU A   5      72.870  61.474  30.548  0.00  0.00    +0.000 C 
ENDBRANCH  30  31
ENDBRANCH  27  30
ENDBRANCH  24  27
ENDBRANCH  22  23
ENDBRANCH  19  22
ENDBRANCH   1  18
BRANCH   1  34
ATOM     34  CB  ILE A   3      69.402  56.502  31.536  0.00  0.00    +0.027 C 
ATOM     35  CG2 ILE A   3      70.875  56.412  31.150  0.00  0.00    +0.002 C 
BRANCH  34  36
ATOM     36  CG1 ILE A   3      68.598  55.480  30.724  0.00  0.00    +0.002 C 
ATOM     37  CD1 ILE A   3      68.623  55.706  29.230  0.00  0.00    +0.000 C 
ENDBRANCH  34  36
ENDBRANCH   1  34
TORSDOF 16
REMARK  Name = ../refined-set-2016/1toi/1toi_pocket.pdb
REMARK  148 active torsions:
REMARK  status: ('A' for Active; 'I' for Inactive)
REMARK    1  A    between atoms: _1  and  _3
REMARK    2  A    between atoms: _3  and  _4
REMARK    3  A    between atoms: _3  and  _6
REMARK    4  A    between atoms: _6  and  _7
REMARK    5  A    between atoms: _10  and  _12
REMARK    6  A    between atoms: _12  and  _13
REMARK    7  A    between atoms: _12  and  _15
REMARK    8  A    between atoms: _15  and  _16
REMARK    9  A    between atoms: _19  and  _21
REMARK   10  A    between atoms: _21  and  _22
REMARK   11  A    between atoms: _21  and  _24
REMARK   12  A    between atoms: _24  and  _25
REMARK   13  A    between atoms: _28  and  _30
REMARK   14  A    between atoms: _30  and  _31
REMARK   15  A    between atoms: _33  and  _35
REMARK   16  A    between atoms: _35  and  _36
REMARK   17  A    between atoms: _35  and  _38
REMARK   18  A    between atoms: _38  and  _39
REMARK   19  A    between atoms: _42  and  _44
REMARK   20  A    between atoms: _44  and  _45
REMARK   21  A    between atoms: _44  and  _47
REMARK   22  A    between atoms: _47  and  _48
REMARK   23  A    between atoms: _51  and  _53
REMARK   24  A    between atoms: _53  and  _54
REMARK   25  A    between atoms: _56  and  _58
REMARK   26  A    between atoms: _58  and  _59
REMARK   27  A    between atoms: _58  and  _61
REMARK   28  A    between atoms: _61  and  _62
REMARK   29  A    between atoms: _65  and  _67
REMARK   30  A    between atoms: _67  and  _68
REMARK   31  A    between atoms: _70  and  _72
REMARK   32  A    between atoms: _72  and  _73
REMARK   33  A    between atoms: _72  and  _75
REMARK   34  A    between atoms: _75  and  _76
REMARK   35  A    between atoms: _79  and  _81
REMARK   36  A    between atoms: _81  and  _82
REMARK   37  A    between atoms: _84  and  _86
REMARK   38  A    between atoms: _86  and  _87
REMARK   39  A    between atoms: _86  and  _89
REMARK   40  A    between atoms: _89  and  _90
REMARK   41  A    between atoms: _92  and  _94
REMARK   42  A    between atoms: _94  and  _95
REMARK   43  A    between atoms: _97  and  _99
REMARK   44  A    between atoms: _99  and  _100
REMARK   45  A    between atoms: _99  and  _102
REMARK   46  A    between atoms: _102  and  _103
REMARK   47  A    between atoms: _106  and  _108
REMARK   48  A    between atoms: _108  and  _109
REMARK   49  A    between atoms: _108  and  _111
REMARK   50  A    between atoms: _111  and  _112
REMARK   51  A    between atoms: _123  and  _124
REMARK   52  A    between atoms: _129  and  _131
REMARK   53  A    between atoms: _131  and  _132
REMARK   54  A    between atoms: _131  and  _134
REMARK   55  A    between atoms: _134  and  _135
REMARK   56  A    between atoms: _140  and  _142
REMARK   57  A    between atoms: _142  and  _143
REMARK   58  A    between atoms: _142  and  _145
REMARK   59  A    between atoms: _145  and  _146
REMARK   60  A    between atoms: _151  and  _153
REMARK   61  A    between atoms: _153  and  _154
REMARK   62  A    between atoms: _153  and  _156
REMARK   63  A    between atoms: _156  and  _157
REMARK   64  A    between atoms: _163  and  _164
REMARK   65  A    between atoms: _169  and  _171
REMARK   66  A    between atoms: _171  and  _172
REMARK   67  A    between atoms: _175  and  _177
REMARK   68  A    between atoms: _177  and  _178
REMARK   69  A    between atoms: _177  and  _180
REMARK   70  A    between atoms: _180  and  _181
REMARK   71  A    between atoms: _186  and  _187
REMARK   72  A    between atoms: _189  and  _191
REMARK   73  A    between atoms: _191  and  _192
REMARK   74  A    between atoms: _191  and  _194
REMARK   75  A    between atoms: _194  and  _195
REMARK   76  A    between atoms: _197  and  _199
REMARK   77  A    between atoms: _199  and  _200
REMARK   78  A    between atoms: _199  and  _202
REMARK   79  A    between atoms: _202  and  _203
REMARK   80  A    between atoms: _210  and  _211
REMARK   81  A    between atoms: _211  and  _227
REMARK   82  A    between atoms: _212  and  _214
REMARK   83  A    between atoms: _214  and  _215
REMARK   84  A    between atoms: _215  and  _216
REMARK   85  A    between atoms: _220  and  _222
REMARK   86  A    between atoms: _222  and  _223
REMARK   87  A    between atoms: _222  and  _230
REMARK   88  A    between atoms: _223  and  _224
REMARK   89  A    between atoms: _224  and  _225
REMARK   90  A    between atoms: _225  and  _226
REMARK   91  A    between atoms: _226  and  _227
REMARK   92  A    between atoms: _232  and  _234
REMARK   93  A    between atoms: _234  and  _235
REMARK   94  A    between atoms: _234  and  _237
REMARK   95  A    between atoms: _237  and  _238
REMARK   96  A    between atoms: _243  and  _244
REMARK   97  A    between atoms: _246  and  _248
REMARK   98  A    between atoms: _248  and  _249
REMARK   99  A    between atoms: _248  and  _251
REMARK  100  A    between atoms: _251  and  _252
REMARK  101  A    between atoms: _252  and  _253
REMARK  102  A    between atoms: _253  and  _254
REMARK  103  A    between atoms: _263  and  _265
REMARK  104  A    between atoms: _265  and  _266
REMARK  105  A    between atoms: _265  and  _268
REMARK  106  A    between atoms: _268  and  _269
REMARK  107  A    between atoms: _269  and  _270
REMARK  108  A    between atoms: _272  and  _274
REMARK  109  A    between atoms: _274  and  _275
REMARK  110  A    between atoms: _274  and  _277
REMARK  111  A    between atoms: _277  and  _278
REMARK  112  A    between atoms: _284  and  _286
REMARK  113  A    between atoms: _286  and  _287
REMARK  114  A    between atoms: _286  and  _289
REMARK  115  A    between atoms: _292  and  _294
REMARK  116  A    between atoms: _294  and  _295
REMARK  117  A    between atoms: _294  and  _297
REMARK  118  A    between atoms: _297  and  _298
REMARK  119  A    between atoms: _298  and  _299
REMARK  120  A    between atoms: _299  and  _300
REMARK  121  A    between atoms: _309  and  _311
REMARK  122  A    between atoms: _311  and  _312
REMARK  123  A    between atoms: _311  and  _314
REMARK  124  A    between atoms: _314  and  _315
REMARK  125  A    between atoms: _320  and  _322
REMARK  126  A    between atoms: _322  and  _323
REMARK  127  A    between atoms: _322  and  _325
REMARK  128  A    between atoms: _325  and  _326
REMARK  129  A    between atoms: _331  and  _332
REMARK  130  A    between atoms: _334  and  _336
REMARK  131  A    between atoms: _336  and  _337
REMARK  132  A    between atoms: _336  and  _339
REMARK  133  A    between atoms: _339  and  _340
REMARK  134  A    between atoms: _340  and  _341
REMARK  135  A    between atoms: _341  and  _342
REMARK  136  A    between atoms: _351  and  _353
REMARK  137  A    between atoms: _353  and  _354
REMARK  138  A    between atoms: _353  and  _356
REMARK  139  A    between atoms: _356  and  _357
REMARK  140  A    between atoms: _362  and  _363
REMARK  141  A    between atoms: _365  and  _367
REMARK  142  A    between atoms: _367  and  _368
REMARK  143  A    between atoms: _367  and  _370
REMARK  144  A    between atoms: _370  and  _371
REMARK  145  A    between atoms: _373  and  _375
REMARK  146  A    between atoms: _375  and  _376
REMARK  147  A    between atoms: _375  and  _378
REMARK  148  A    between atoms: _378  and  _379
REMARK                            x       y       z     vdW  Elec       q    Type
REMARK                         _______ _______ _______ _____ _____    ______ ____
ROOT
ATOM      1  CA  SER A   2      81.624  50.709  27.971  0.00  0.00    +0.178 C 
ENDROOT
BRANCH   1   4
ATOM      2  C   GLY A   1      83.344  51.692  29.383  0.00  0.00    +0.240 C 
ATOM      3  O   GLY A   1      83.867  50.591  29.568  0.00  0.00    -0.274 OA
ATOM      4  N   SER A   2      82.255  51.856  28.630  0.00  0.00    -0.295 N 
ATOM      5  H   SER A   2      81.850  52.806  28.510  0.00  0.00    +0.150 HD
BRANCH   2   6
ATOM      6  CA  GLY A   1      83.955  52.943  29.995  0.00  0.00    +0.169 C 
BRANCH   6   7
ATOM      7  N   GLY A   1      83.687  54.123  29.172  0.00  0.00    -0.236 NA
ATOM      8  H   GLY A   1      83.177  54.927  29.589  0.00  0.00    +0.142 HD
ENDBRANCH   6   7
ENDBRANCH   2   6
ENDBRANCH   1   4
BRANCH   1   9
ATOM      9  C   SER A   2      82.591  50.147  26.947  0.00  0.00    +0.243 C 
ATOM     10  O   SER A   2      82.846  48.946  26.920  0.00  0.00    -0.273 OA
ATOM     11  N   GLY A   3      83.169  51.024  26.130  0.00  0.00    -0.296 N 
ATOM     12  H   GLY A   3      82.893  52.026  26.170  0.00  0.00    +0.150 HD
BRANCH  11  13
ATOM     13  CA  GLY A   3      84.190  50.591  25.175  0.00  0.00    +0.163 C 
BRANCH  13  14
ATOM     14  C   GLY A   3      85.355  49.917  25.883  0.00  0.00    +0.229 C 
ATOM     15  O   GLY A   3      85.872  48.907  25.408  0.00  0.00    -0.286 OA
ENDBRANCH  13  14
ENDBRANCH  11  13
ENDBRANCH   1   9
BRANCH   1  16
ATOM     16  CB  SER A   2      80.308  51.102  27.287  0.00  0.00    +0.166 C 
BRANCH  16  17
ATOM     17  OG  SER A   2      79.300  51.438  28.234  0.00  0.00    -0.380 OA
ATOM     18  H   SER A   2      79.606  52.203  28.783  0.00  0.00    +0.211 HD
ENDBRANCH  16  17
ENDBRANCH   1  16
TORSDOF 8
REMARK  Name = ../refined-set-2016/1toi/1toi_pocket.pdb
REMARK  148 active torsions:
REMARK  status: ('A' for Active; 'I' for Inactive)
REMARK    1  A    between atoms: _1  and  _3
REMARK    2  A    between atoms: _3  and  _4
REMARK    3  A    between atoms: _3  and  _6
REMARK    4  A    between atoms: _6  and  _7
REMARK    5  A    between atoms: _10  and  _12
REMARK    6  A    between atoms: _12  and  _13
REMARK    7  A    between atoms: _12  and  _15
REMARK    8  A    between atoms: _15  and  _16
REMARK    9  A    between atoms: _19  and  _21
REMARK   10  A    between atoms: _21  and  _22
REMARK   11  A    between atoms: _21  and  _24
REMARK   12  A    between atoms: _24  and  _25
REMARK   13  A    between atoms: _28  and  _30
REMARK   14  A    between atoms: _30  and  _31
REMARK   15  A    between atoms: _33  and  _35
REMARK   16  A    between atoms: _35  and  _36
REMARK   17  A    between atoms: _35  and  _38
REMARK   18  A    between atoms: _38  and  _39
REMARK   19  A    between atoms: _42  and  _44
REMARK   20  A    between atoms: _44  and  _45
REMARK   21  A    between atoms: _44  and  _47
REMARK   22  A    between atoms: _47  and  _48
REMARK   23  A    between atoms: _51  and  _53
REMARK   24  A    between atoms: _53  and  _54
REMARK   25  A    between atoms: _56  and  _58
REMARK   26  A    between atoms: _58  and  _59
REMARK   27  A    between atoms: _58  and  _61
REMARK   28  A    between atoms: _61  and  _62
REMARK   29  A    between atoms: _65  and  _67
REMARK   30  A    between atoms: _67  and  _68
REMARK   31  A    between atoms: _70  and  _72
REMARK   32  A    between atoms: _72  and  _73
REMARK   33  A    between atoms: _72  and  _75
REMARK   34  A    between atoms: _75  and  _76
REMARK   35  A    between atoms: _79  and  _81
REMARK   36  A    between atoms: _81  and  _82
REMARK   37  A    between atoms: _84  and  _86
REMARK   38  A    between atoms: _86  and  _87
REMARK   39  A    between atoms: _86  and  _89
REMARK   40  A    between atoms: _89  and  _90
REMARK   41  A    between atoms: _92  and  _94
REMARK   42  A    between atoms: _94  and  _95
REMARK   43  A    between atoms: _97  and  _99
REMARK   44  A    between atoms: _99  and  _100
REMARK   45  A    between atoms: _99  and  _102
REMARK   46  A    between atoms: _102  and  _103
REMARK   47  A    between atoms: _106  and  _108
REMARK   48  A    between atoms: _108  and  _109
REMARK   49  A    between atoms: _108  and  _111
REMARK   50  A    between atoms: _111  and  _112
REMARK   51  A    between atoms: _123  and  _124
REMARK   52  A    between atoms: _129  and  _131
REMARK   53  A    between atoms: _131  and  _132
REMARK   54  A    between atoms: _131  and  _134
REMARK   55  A    between atoms: _134  and  _135
REMARK   56  A    between atoms: _140  and  _142
REMARK   57  A    between atoms: _142  and  _143
REMARK   58  A    between atoms: _142  and  _145
REMARK   59  A    between atoms: _145  and  _146
REMARK   60  A    between atoms: _151  and  _153
REMARK   61  A    between atoms: _153  and  _154
REMARK   62  A    between atoms: _153  and  _156
REMARK   63  A    between atoms: _156  and  _157
REMARK   64  A    between atoms: _163  and  _164
REMARK   65  A    between atoms: _169  and  _171
REMARK   66  A    between atoms: _171  and  _172
REMARK   67  A    between atoms: _175  and  _177
REMARK   68  A    between atoms: _177  and  _178
REMARK   69  A    between atoms: _177  and  _180
REMARK   70  A    between atoms: _180  and  _181
REMARK   71  A    between atoms: _186  and  _187
REMARK   72  A    between atoms: _189  and  _191
REMARK   73  A    between atoms: _191  and  _192
REMARK   74  A    between atoms: _191  and  _194
REMARK   75  A    between atoms: _194  and  _195
REMARK   76  A    between atoms: _197  and  _199
REMARK   77  A    between atoms: _199  and  _200
REMARK   78  A    between atoms: _199  and  _202
REMARK   79  A    between atoms: _202  and  _203
REMARK   80  A    between atoms: _210  and  _211
REMARK   81  A    between atoms: _211  and  _227
REMARK   82  A    between atoms: _212  and  _214
REMARK   83  A    between atoms: _214  and  _215
REMARK   84  A    between atoms: _215  and  _216
REMARK   85  A    between atoms: _220  and  _222
REMARK   86  A    between atoms: _222  and  _223
REMARK   87  A    between atoms: _222  and  _230
REMARK   88  A    between atoms: _223  and  _224
REMARK   89  A    between atoms: _224  and  _225
REMARK   90  A    between atoms: _225  and  _226
REMARK   91  A    between atoms: _226  and  _227
REMARK   92  A    between atoms: _232  and  _234
REMARK   93  A    between atoms: _234  and  _235
REMARK   94  A    between atoms: _234  and  _237
REMARK   95  A    between atoms: _237  and  _238
REMARK   96  A    between atoms: _243  and  _244
REMARK   97  A    between atoms: _246  and  _248
REMARK   98  A    between atoms: _248  and  _249
REMARK   99  A    between atoms: _248  and  _251
REMARK  100  A    between atoms: _251  and  _252
REMARK  101  A    between atoms: _252  and  _253
REMARK  102  A    between atoms: _253  and  _254
REMARK  103  A    between atoms: _263  and  _265
REMARK  104  A    between atoms: _265  and  _266
REMARK  105  A    between atoms: _265  and  _268
REMARK  106  A    between atoms: _268  and  _269
REMARK  107  A    between atoms: _269  and  _270
REMARK  108  A    between atoms: _272  and  _274
REMARK  109  A    between atoms: _274  and  _275
REMARK  110  A    between atoms: _274  and  _277
REMARK  111  A    between atoms: _277  and  _278
REMARK  112  A    between atoms: _284  and  _286
REMARK  113  A    between atoms: _286  and  _287
REMARK  114  A    between atoms: _286  and  _289
REMARK  115  A    between atoms: _292  and  _294
REMARK  116  A    between atoms: _294  and  _295
REMARK  117  A    between atoms: _294  and  _297
REMARK  118  A    between atoms: _297  and  _298
REMARK  119  A    between atoms: _298  and  _299
REMARK  120  A    between atoms: _299  and  _300
REMARK  121  A    between atoms: _309  and  _311
REMARK  122  A    between atoms: _311  and  _312
REMARK  123  A    between atoms: _311  and  _314
REMARK  124  A    between atoms: _314  and  _315
REMARK  125  A    between atoms: _320  and  _322
REMARK  126  A    between atoms: _322  and  _323
REMARK  127  A    between atoms: _322  and  _325
REMARK  128  A    between atoms: _325  and  _326
REMARK  129  A    between atoms: _331  and  _332
REMARK  130  A    between atoms: _334  and  _336
REMARK  131  A    between atoms: _336  and  _337
REMARK  132  A    between atoms: _336  and  _339
REMARK  133  A    between atoms: _339  and  _340
REMARK  134  A    between atoms: _340  and  _341
REMARK  135  A    between atoms: _341  and  _342
REMARK  136  A    between atoms: _351  and  _353
REMARK  137  A    between atoms: _353  and  _354
REMARK  138  A    between atoms: _353  and  _356
REMARK  139  A    between atoms: _356  and  _357
REMARK  140  A    between atoms: _362  and  _363
REMARK  141  A    between atoms: _365  and  _367
REMARK  142  A    between atoms: _367  and  _368
REMARK  143  A    between atoms: _367  and  _370
REMARK  144  A    between atoms: _370  and  _371
REMARK  145  A    between atoms: _373  and  _375
REMARK  146  A    between atoms: _375  and  _376
REMARK  147  A    between atoms: _375  and  _378
REMARK  148  A    between atoms: _378  and  _379
REMARK                            x       y       z     vdW  Elec       q    Type
REMARK                         _______ _______ _______ _____ _____    ______ ____
ROOT
ATOM      1  CA  LEU A   1      84.885  46.942  29.165  0.00  0.00    +0.133 C 
ENDROOT
BRANCH   1   2
ATOM      2  N   LEU A   1      85.288  48.281  28.687  0.00  0.00    -0.239 NA
ATOM      3  H   LEU A   1      84.597  49.058  28.672  0.00  0.00    +0.142 HD
ENDBRANCH   1   2
BRANCH   1   4
ATOM      4  C   LEU A   1      84.942  45.947  28.018  0.00  0.00    +0.224 C 
ATOM      5  O   LEU A   1      85.403  44.825  28.191  0.00  0.00    -0.287 OA
ENDBRANCH   1   4
BRANCH   1   6
ATOM      6  CB  LEU A   1      83.495  46.947  29.813  0.00  0.00    +0.025 C 
BRANCH   6   7
ATOM      7  CG  LEU A   1      83.434  47.693  31.150  0.00  0.00    +0.002 C 
ATOM      8  CD2 LEU A   1      84.020  46.797  32.268  0.00  0.00    +0.000 C 
ATOM      9  CD1 LEU A   1      81.990  48.055  31.461  0.00  0.00    +0.000 C 
ENDBRANCH   6   7
ENDBRANCH   1   6
TORSDOF 4
REMARK  Name = ../refined-set-2016/1toi/1toi_pocket.pdb
REMARK  148 active torsions:
REMARK  status: ('A' for Active; 'I' for Inactive)
REMARK    1  A    between atoms: _1  and  _3
REMARK    2  A    between atoms: _3  and  _4
REMARK    3  A    between atoms: _3  and  _6
REMARK    4  A    between atoms: _6  and  _7
REMARK    5  A    between atoms: _10  and  _12
REMARK    6  A    between atoms: _12  and  _13
REMARK    7  A    between atoms: _12  and  _15
REMARK    8  A    between atoms: _15  and  _16
REMARK    9  A    between atoms: _19  and  _21
REMARK   10  A    between atoms: _21  and  _22
REMARK   11  A    between atoms: _21  and  _24
REMARK   12  A    between atoms: _24  and  _25
REMARK   13  A    between atoms: _28  and  _30
REMARK   14  A    between atoms: _30  and  _31
REMARK   15  A    between atoms: _33  and  _35
REMARK   16  A    between atoms: _35  and  _36
REMARK   17  A    between atoms: _35  and  _38
REMARK   18  A    between atoms: _38  and  _39
REMARK   19  A    between atoms: _42  and  _44
REMARK   20  A    between atoms: _44  and  _45
REMARK   21  A    between atoms: _44  and  _47
REMARK   22  A    between atoms: _47  and  _48
REMARK   23  A    between atoms: _51  and  _53
REMARK   24  A    between atoms: _53  and  _54
REMARK   25  A    between atoms: _56  and  _58
REMARK   26  A    between atoms: _58  and  _59
REMARK   27  A    between atoms: _58  and  _61
REMARK   28  A    between atoms: _61  and  _62
REMARK   29  A    between atoms: _65  and  _67
REMARK   30  A    between atoms: _67  and  _68
REMARK   31  A    between atoms: _70  and  _72
REMARK   32  A    between atoms: _72  and  _73
REMARK   33  A    between atoms: _72  and  _75
REMARK   34  A    between atoms: _75  and  _76
REMARK   35  A    between atoms: _79  and  _81
REMARK   36  A    between atoms: _81  and  _82
REMARK   37  A    between atoms: _84  and  _86
REMARK   38  A    between atoms: _86  and  _87
REMARK   39  A    between atoms: _86  and  _89
REMARK   40  A    between atoms: _89  and  _90
REMARK   41  A    between atoms: _92  and  _94
REMARK   42  A    between atoms: _94  and  _95
REMARK   43  A    between atoms: _97  and  _99
REMARK   44  A    between atoms: _99  and  _100
REMARK   45  A    between atoms: _99  and  _102
REMARK   46  A    between atoms: _102  and  _103
REMARK   47  A    between atoms: _106  and  _108
REMARK   48  A    between atoms: _108  and  _109
REMARK   49  A    between atoms: _108  and  _111
REMARK   50  A    between atoms: _111  and  _112
REMARK   51  A    between atoms: _123  and  _124
REMARK   52  A    between atoms: _129  and  _131
REMARK   53  A    between atoms: _131  and  _132
REMARK   54  A    between atoms: _131  and  _134
REMARK   55  A    between atoms: _134  and  _135
REMARK   56  A    between atoms: _140  and  _142
REMARK   57  A    between atoms: _142  and  _143
REMARK   58  A    between atoms: _142  and  _145
REMARK   59  A    between atoms: _145  and  _146
REMARK   60  A    between atoms: _151  and  _153
REMARK   61  A    between atoms: _153  and  _154
REMARK   62  A    between atoms: _153  and  _156
REMARK   63  A    between atoms: _156  and  _157
REMARK   64  A    between atoms: _163  and  _164
REMARK   65  A    between atoms: _169  and  _171
REMARK   66  A    between atoms: _171  and  _172
REMARK   67  A    between atoms: _175  and  _177
REMARK   68  A    between atoms: _177  and  _178
REMARK   69  A    between atoms: _177  and  _180
REMARK   70  A    between atoms: _180  and  _181
REMARK   71  A    between atoms: _186  and  _187
REMARK   72  A    between atoms: _189  and  _191
REMARK   73  A    between atoms: _191  and  _192
REMARK   74  A    between atoms: _191  and  _194
REMARK   75  A    between atoms: _194  and  _195
REMARK   76  A    between atoms: _197  and  _199
REMARK   77  A    between atoms: _199  and  _200
REMARK   78  A    between atoms: _199  and  _202
REMARK   79  A    between atoms: _202  and  _203
REMARK   80  A    between atoms: _210  and  _211
REMARK   81  A    between atoms: _211  and  _227
REMARK   82  A    between atoms: _212  and  _214
REMARK   83  A    between atoms: _214  and  _215
REMARK   84  A    between atoms: _215  and  _216
REMARK   85  A    between atoms: _220  and  _222
REMARK   86  A    between atoms: _222  and  _223
REMARK   87  A    between atoms: _222  and  _230
REMARK   88  A    between atoms: _223  and  _224
REMARK   89  A    between atoms: _224  and  _225
REMARK   90  A    between atoms: _225  and  _226
REMARK   91  A    between atoms: _226  and  _227
REMARK   92  A    between atoms: _232  and  _234
REMARK   93  A    between atoms: _234  and  _235
REMARK   94  A    between atoms: _234  and  _237
REMARK   95  A    between atoms: _237  and  _238
REMARK   96  A    between atoms: _243  and  _244
REMARK   97  A    between atoms: _246  and  _248
REMARK   98  A    between atoms: _248  and  _249
REMARK   99  A    between atoms: _248  and  _251
REMARK  100  A    between atoms: _251  and  _252
REMARK  101  A    between atoms: _252  and  _253
REMARK  102  A    between atoms: _253  and  _254
REMARK  103  A    between atoms: _263  and  _265
REMARK  104  A    between atoms: _265  and  _266
REMARK  105  A    between atoms: _265  and  _268
REMARK  106  A    between atoms: _268  and  _269
REMARK  107  A    between atoms: _269  and  _270
REMARK  108  A    between atoms: _272  and  _274
REMARK  109  A    between atoms: _274  and  _275
REMARK  110  A    between atoms: _274  and  _277
REMARK  111  A    between atoms: _277  and  _278
REMARK  112  A    between atoms: _284  and  _286
REMARK  113  A    between atoms: _286  and  _287
REMARK  114  A    between atoms: _286  and  _289
REMARK  115  A    between atoms: _292  and  _294
REMARK  116  A    between atoms: _294  and  _295
REMARK  117  A    between atoms: _294  and  _297
REMARK  118  A    between atoms: _297  and  _298
REMARK  119  A    between atoms: _298  and  _299
REMARK  120  A    between atoms: _299  and  _300
REMARK  121  A    between atoms: _309  and  _311
REMARK  122  A    between atoms: _311  and  _312
REMARK  123  A    between atoms: _311  and  _314
REMARK  124  A    between atoms: _314  and  _315
REMARK  125  A    between atoms: _320  and  _322
REMARK  126  A    between atoms: _322  and  _323
REMARK  127  A    between atoms: _322  and  _325
REMARK  128  A    between atoms: _325  and  _326
REMARK  129  A    between atoms: _331  and  _332
REMARK  130  A    between atoms: _334  and  _336
REMARK  131  A    between atoms: _336  and  _337
REMARK  132  A    between atoms: _336  and  _339
REMARK  133  A    between atoms: _339  and  _340
REMARK  134  A    between atoms: _340  and  _341
REMARK  135  A    between atoms: _341  and  _342
REMARK  136  A    between atoms: _351  and  _353
REMARK  137  A    between atoms: _353  and  _354
REMARK  138  A    between atoms: _353  and  _356
REMARK  139  A    between atoms: _356  and  _357
REMARK  140  A    between atoms: _362  and  _363
REMARK  141  A    between atoms: _365  and  _367
REMARK  142  A    between atoms: _367  and  _368
REMARK  143  A    between atoms: _367  and  _370
REMARK  144  A    between atoms: _370  and  _371
REMARK  145  A    between atoms: _373  and  _375
REMARK  146  A    between atoms: _375  and  _376
REMARK  147  A    between atoms: _375  and  _378
REMARK  148  A    between atoms: _378  and  _379
REMARK                            x       y       z     vdW  Elec       q    Type
REMARK                         _______ _______ _______ _____ _____    ______ ____
ROOT
ATOM      1  C   PRO A   2      74.208  44.403  32.193  0.00  0.00    +0.241 C 
ATOM      2  N   ASN A   3      74.831  45.528  31.847  0.00  0.00    -0.297 N 
ATOM      3  H   ASN A   3      74.649  46.405  32.376  0.00  0.00    +0.150 HD
ATOM      4  O   PRO A   2      74.386  43.332  31.600  0.00  0.00    -0.273 OA
ENDROOT
BRANCH   1  11
ATOM      5  C   TRP A   1      74.691  45.422  35.071  0.00  0.00    +0.242 C 
ATOM      6  O   TRP A   1      75.625  44.687  34.748  0.00  0.00    -0.273 OA
ATOM      7  N   PRO A   2      73.538  45.464  34.399  0.00  0.00    -0.272 N 
ATOM      8  CD  PRO A   2      72.456  46.444  34.605  0.00  0.00    +0.094 C 
ATOM      9  CG  PRO A   2      71.299  45.868  33.850  0.00  0.00    +0.024 C 
ATOM     10  CB  PRO A   2      71.841  44.945  32.818  0.00  0.00    +0.031 C 
ATOM     11  CA  PRO A   2      73.213  44.479  33.345  0.00  0.00    +0.152 C 
BRANCH   5  12
ATOM     12  CA  TRP A   1      74.818  46.305  36.309  0.00  0.00    +0.149 C 
BRANCH  12  13
ATOM     13  N   TRP A   1      75.132  45.404  37.407  0.00  0.00    -0.238 NA
ATOM     14  H   TRP A   1      76.127  45.281  37.682  0.00  0.00    +0.142 HD
ENDBRANCH  12  13
BRANCH  12  15
ATOM     15  CB  TRP A   1      75.982  47.270  36.165  0.00  0.00    +0.054 C 
BRANCH  15  16
ATOM     16  CG  TRP A   1      75.780  48.395  35.219  0.00  0.00    -0.002 A 
ATOM     17  CD1 TRP A   1      74.844  49.389  35.303  0.00  0.00    +0.068 A 
ATOM     18  NE1 TRP A   1      75.030  50.295  34.286  0.00  0.00    -0.352 N 
ATOM     19  HE1 TRP A   1      74.449  51.140  34.116  0.00  0.00    +0.166 HD
ATOM     20  CE2 TRP A   1      76.110  49.902  33.530  0.00  0.00    +0.056 A 
ATOM     21  CZ2 TRP A   1      76.682  50.490  32.386  0.00  0.00    +0.017 A 
ATOM     22  CH2 TRP A   1      77.770  49.862  31.820  0.00  0.00    +0.001 A 
ATOM     23  CZ3 TRP A   1      78.300  48.686  32.368  0.00  0.00    +0.000 A 
ATOM     24  CE3 TRP A   1      77.732  48.101  33.508  0.00  0.00    +0.001 A 
ATOM     25  CD2 TRP A   1      76.608  48.710  34.097  0.00  0.00    +0.013 A 
ENDBRANCH  15  16
ENDBRANCH  12  15
ENDBRANCH   5  12
ENDBRANCH   1  11
BRANCH   2  26
ATOM     26  CA  ASN A   3      75.768  45.536  30.728  0.00  0.00    +0.158 C 
BRANCH  26  27
ATOM     27  C   ASN A   3      77.010  44.676  30.954  0.00  0.00    +0.241 C 
ATOM     28  N   HIS A   4      77.396  44.443  32.208  0.00  0.00    -0.298 N 
ATOM     29  H   HIS A   4      76.897  44.890  33.003  0.00  0.00    +0.150 HD
ATOM     30  O   ASN A   3      77.614  44.218  29.991  0.00  0.00    -0.273 OA
BRANCH  28  31
ATOM     31  CA  HIS A   4      78.537  43.546  32.456  0.00  0.00    +0.143 C 
BRANCH  31  32
ATOM     32  C   HIS A   4      78.275  42.161  31.880  0.00  0.00    +0.227 C 
ATOM     33  O   HIS A   4      79.058  41.660  31.076  0.00  0.00    -0.286 OA
ENDBRANCH  31  32
BRANCH  31  34
ATOM     34  CB  HIS A   4      78.884  43.448  33.948  0.00  0.00    +0.075 C 
BRANCH  34  35
ATOM     35  CG  HIS A   4      79.494  44.698  34.492  0.00  0.00    +0.082 A 
ATOM     36  ND1 HIS A   4      79.218  45.176  35.754  0.00  0.00    -0.227 NA
ATOM     37  CE1 HIS A   4      79.878  46.305  35.948  0.00  0.00    +0.199 A 
ATOM     38  NE2 HIS A   4      80.578  46.575  34.857  0.00  0.00    -0.221 NA
ATOM     39  CD2 HIS A   4      80.342  45.595  33.924  0.00  0.00    +0.115 A 
ENDBRANCH  34  35
ENDBRANCH  31  34
ENDBRANCH  28  31
ENDBRANCH  26  27
BRANCH  26  40
ATOM     40  CB  ASN A   3      76.174  46.959  30.339  0.00  0.00    +0.114 C 
BRANCH  40  41
ATOM     41  CG  ASN A   3      75.397  47.491  29.141  0.00  0.00    +0.222 C 
ATOM     42  ND2 ASN A   3      74.190  46.979  28.931  0.00  0.00    -0.329 N 
ATOM     43 HD21 ASN A   3      73.813  46.255  29.576  0.00  0.00    +0.145 HD
ATOM     44 HD22 ASN A   3      73.622  47.302  28.122  0.00  0.00    +0.145 HD
ATOM     45  OD1 ASN A   3      75.899  48.359  28.403  0.00  0.00    -0.275 OA
ENDBRANCH  40  41
ENDBRANCH  26  40
ENDBRANCH   2  26
TORSDOF 13
REMARK  Name = ../refined-set-2016/1toi/1toi_pocket.pdb
REMARK  148 active torsions:
REMARK  status: ('A' for Active; 'I' for Inactive)
REMARK    1  A    between atoms: _1  and  _3
REMARK    2  A    between atoms: _3  and  _4
REMARK    3  A    between atoms: _3  and  _6
REMARK    4  A    between atoms: _6  and  _7
REMARK    5  A    between atoms: _10  and  _12
REMARK    6  A    between atoms: _12  and  _13
REMARK    7  A    between atoms: _12  and  _15
REMARK    8  A    between atoms: _15  and  _16
REMARK    9  A    between atoms: _19  and  _21
REMARK   10  A    between atoms: _21  and  _22
REMARK   11  A    between atoms: _21  and  _24
REMARK   12  A    between atoms: _24  and  _25
REMARK   13  A    between atoms: _28  and  _30
REMARK   14  A    between atoms: _30  and  _31
REMARK   15  A    between atoms: _33  and  _35
REMARK   16  A    between atoms: _35  and  _36
REMARK   17  A    between atoms: _35  and  _38
REMARK   18  A    between atoms: _38  and  _39
REMARK   19  A    between atoms: _42  and  _44
REMARK   20  A    between atoms: _44  and  _45
REMARK   21  A    between atoms: _44  and  _47
REMARK   22  A    between atoms: _47  and  _48
REMARK   23  A    between atoms: _51  and  _53
REMARK   24  A    between atoms: _53  and  _54
REMARK   25  A    between atoms: _56  and  _58
REMARK   26  A    between atoms: _58  and  _59
REMARK   27  A    between atoms: _58  and  _61
REMARK   28  A    between atoms: _61  and  _62
REMARK   29  A    between atoms: _65  and  _67
REMARK   30  A    between atoms: _67  and  _68
REMARK   31  A    between atoms: _70  and  _72
REMARK   32  A    between atoms: _72  and  _73
REMARK   33  A    between atoms: _72  and  _75
REMARK   34  A    between atoms: _75  and  _76
REMARK   35  A    between atoms: _79  and  _81
REMARK   36  A    between atoms: _81  and  _82
REMARK   37  A    between atoms: _84  and  _86
REMARK   38  A    between atoms: _86  and  _87
REMARK   39  A    between atoms: _86  and  _89
REMARK   40  A    between atoms: _89  and  _90
REMARK   41  A    between atoms: _92  and  _94
REMARK   42  A    between atoms: _94  and  _95
REMARK   43  A    between atoms: _97  and  _99
REMARK   44  A    between atoms: _99  and  _100
REMARK   45  A    between atoms: _99  and  _102
REMARK   46  A    between atoms: _102  and  _103
REMARK   47  A    between atoms: _106  and  _108
REMARK   48  A    between atoms: _108  and  _109
REMARK   49  A    between atoms: _108  and  _111
REMARK   50  A    between atoms: _111  and  _112
REMARK   51  A    between atoms: _123  and  _124
REMARK   52  A    between atoms: _129  and  _131
REMARK   53  A    between atoms: _131  and  _132
REMARK   54  A    between atoms: _131  and  _134
REMARK   55  A    between atoms: _134  and  _135
REMARK   56  A    between atoms: _140  and  _142
REMARK   57  A    between atoms: _142  and  _143
REMARK   58  A    between atoms: _142  and  _145
REMARK   59  A    between atoms: _145  and  _146
REMARK   60  A    between atoms: _151  and  _153
REMARK   61  A    between atoms: _153  and  _154
REMARK   62  A    between atoms: _153  and  _156
REMARK   63  A    between atoms: _156  and  _157
REMARK   64  A    between atoms: _163  and  _164
REMARK   65  A    between atoms: _169  and  _171
REMARK   66  A    between atoms: _171  and  _172
REMARK   67  A    between atoms: _175  and  _177
REMARK   68  A    between atoms: _177  and  _178
REMARK   69  A    between atoms: _177  and  _180
REMARK   70  A    between atoms: _180  and  _181
REMARK   71  A    between atoms: _186  and  _187
REMARK   72  A    between atoms: _189  and  _191
REMARK   73  A    between atoms: _191  and  _192
REMARK   74  A    between atoms: _191  and  _194
REMARK   75  A    between atoms: _194  and  _195
REMARK   76  A    between atoms: _197  and  _199
REMARK   77  A    between atoms: _199  and  _200
REMARK   78  A    between atoms: _199  and  _202
REMARK   79  A    between atoms: _202  and  _203
REMARK   80  A    between atoms: _210  and  _211
REMARK   81  A    between atoms: _211  and  _227
REMARK   82  A    between atoms: _212  and  _214
REMARK   83  A    between atoms: _214  and  _215
REMARK   84  A    between atoms: _215  and  _216
REMARK   85  A    between atoms: _220  and  _222
REMARK   86  A    between atoms: _222  and  _223
REMARK   87  A    between atoms: _222  and  _230
REMARK   88  A    between atoms: _223  and  _224
REMARK   89  A    between atoms: _224  and  _225
REMARK   90  A    between atoms: _225  and  _226
REMARK   91  A    between atoms: _226  and  _227
REMARK   92  A    between atoms: _232  and  _234
REMARK   93  A    between atoms: _234  and  _235
REMARK   94  A    between atoms: _234  and  _237
REMARK   95  A    between atoms: _237  and  _238
REMARK   96  A    between atoms: _243  and  _244
REMARK   97  A    between atoms: _246  and  _248
REMARK   98  A    between atoms: _248  and  _249
REMARK   99  A    between atoms: _248  and  _251
REMARK  100  A    between atoms: _251  and  _252
REMARK  101  A    between atoms: _252  and  _253
REMARK  102  A    between atoms: _253  and  _254
REMARK  103  A    between atoms: _263  and  _265
REMARK  104  A    between atoms: _265  and  _266
REMARK  105  A    between atoms: _265  and  _268
REMARK  106  A    between atoms: _268  and  _269
REMARK  107  A    between atoms: _269  and  _270
REMARK  108  A    between atoms: _272  and  _274
REMARK  109  A    between atoms: _274  and  _275
REMARK  110  A    between atoms: _274  and  _277
REMARK  111  A    between atoms: _277  and  _278
REMARK  112  A    between atoms: _284  and  _286
REMARK  113  A    between atoms: _286  and  _287
REMARK  114  A    between atoms: _286  and  _289
REMARK  115  A    between atoms: _292  and  _294
REMARK  116  A    between atoms: _294  and  _295
REMARK  117  A    between atoms: _294  and  _297
REMARK  118  A    between atoms: _297  and  _298
REMARK  119  A    between atoms: _298  and  _299
REMARK  120  A    between atoms: _299  and  _300
REMARK  121  A    between atoms: _309  and  _311
REMARK  122  A    between atoms: _311  and  _312
REMARK  123  A    between atoms: _311  and  _314
REMARK  124  A    between atoms: _314  and  _315
REMARK  125  A    between atoms: _320  and  _322
REMARK  126  A    between atoms: _322  and  _323
REMARK  127  A    between atoms: _322  and  _325
REMARK  128  A    between atoms: _325  and  _326
REMARK  129  A    between atoms: _331  and  _332
REMARK  130  A    between atoms: _334  and  _336
REMARK  131  A    between atoms: _336  and  _337
REMARK  132  A    between atoms: _336  and  _339
REMARK  133  A    between atoms: _339  and  _340
REMARK  134  A    between atoms: _340  and  _341
REMARK  135  A    between atoms: _341  and  _342
REMARK  136  A    between atoms: _351  and  _353
REMARK  137  A    between atoms: _353  and  _354
REMARK  138  A    between atoms: _353  and  _356
REMARK  139  A    between atoms: _356  and  _357
REMARK  140  A    between atoms: _362  and  _363
REMARK  141  A    between atoms: _365  and  _367
REMARK  142  A    between atoms: _367  and  _368
REMARK  143  A    between atoms: _367  and  _370
REMARK  144  A    between atoms: _370  and  _371
REMARK  145  A    between atoms: _373  and  _375
REMARK  146  A    between atoms: _375  and  _376
REMARK  147  A    between atoms: _375  and  _378
REMARK  148  A    between atoms: _378  and  _379
REMARK                            x       y       z     vdW  Elec       q    Type
REMARK                         _______ _______ _______ _____ _____    ______ ____
ROOT
ATOM      1  CA  ASN A   1      75.725  50.516  40.616  0.00  0.00    +0.154 C 
ENDROOT
BRANCH   1   2
ATOM      2  C   ASN A   1      75.106  49.132  40.549  0.00  0.00    +0.242 C 
ATOM      3  N   PRO A   2      73.950  48.888  41.186  0.00  0.00    -0.273 N 
ATOM      4  CA  PRO A   2      73.004  49.917  41.615  0.00  0.00    +0.140 C 
ATOM      5  CB  PRO A   2      71.676  49.307  41.168  0.00  0.00    +0.030 C 
ATOM      6  CG  PRO A   2      71.877  47.813  41.501  0.00  0.00    +0.024 C 
ATOM      7  CD  PRO A   2      73.372  47.530  41.343  0.00  0.00    +0.094 C 
ATOM      8  O   ASN A   1      75.683  48.271  39.881  0.00  0.00    -0.273 OA
BRANCH   4   9
ATOM      9  C   PRO A   2      72.870  50.251  43.117  0.00  0.00    +0.227 C 
ATOM     10  O   PRO A   2      72.040  51.099  43.462  0.00  0.00    -0.286 OA
ENDBRANCH   4   9
ENDBRANCH   1   2
BRANCH   1  11
ATOM     11  N   ASN A   1      76.947  50.346  41.403  0.00  0.00    -0.238 NA
ATOM     12  H   ASN A   1      77.753  49.846  40.976  0.00  0.00    +0.142 HD
ENDBRANCH   1  11
BRANCH   1  13
ATOM     13  CB  ASN A   1      76.117  50.999  39.212  0.00  0.00    +0.111 C 
BRANCH  13  14
ATOM     14  CG  ASN A   1      74.913  51.380  38.336  0.00  0.00    +0.221 C 
ATOM     15  OD1 ASN A   1      73.774  50.970  38.587  0.00  0.00    -0.275 OA
ATOM     16  ND2 ASN A   1      75.182  52.141  37.280  0.00  0.00    -0.329 N 
ATOM     17 HD21 ASN A   1      76.155  52.464  37.106  0.00  0.00    +0.145 HD
ATOM     18 HD22 ASN A   1      74.419  52.413  36.627  0.00  0.00    +0.145 HD
ENDBRANCH  13  14
ENDBRANCH   1  13
TORSDOF 5
REMARK  Name = ../refined-set-2016/1toi/1toi_pocket.pdb
REMARK  148 active torsions:
REMARK  status: ('A' for Active; 'I' for Inactive)
REMARK    1  A    between atoms: _1  and  _3
REMARK    2  A    between atoms: _3  and  _4
REMARK    3  A    between atoms: _3  and  _6
REMARK    4  A    between atoms: _6  and  _7
REMARK    5  A    between atoms: _10  and  _12
REMARK    6  A    between atoms: _12  and  _13
REMARK    7  A    between atoms: _12  and  _15
REMARK    8  A    between atoms: _15  and  _16
REMARK    9  A    between atoms: _19  and  _21
REMARK   10  A    between atoms: _21  and  _22
REMARK   11  A    between atoms: _21  and  _24
REMARK   12  A    between atoms: _24  and  _25
REMARK   13  A    between atoms: _28  and  _30
REMARK   14  A    between atoms: _30  and  _31
REMARK   15  A    between atoms: _33  and  _35
REMARK   16  A    between atoms: _35  and  _36
REMARK   17  A    between atoms: _35  and  _38
REMARK   18  A    between atoms: _38  and  _39
REMARK   19  A    between atoms: _42  and  _44
REMARK   20  A    between atoms: _44  and  _45
REMARK   21  A    between atoms: _44  and  _47
REMARK   22  A    between atoms: _47  and  _48
REMARK   23  A    between atoms: _51  and  _53
REMARK   24  A    between atoms: _53  and  _54
REMARK   25  A    between atoms: _56  and  _58
REMARK   26  A    between atoms: _58  and  _59
REMARK   27  A    between atoms: _58  and  _61
REMARK   28  A    between atoms: _61  and  _62
REMARK   29  A    between atoms: _65  and  _67
REMARK   30  A    between atoms: _67  and  _68
REMARK   31  A    between atoms: _70  and  _72
REMARK   32  A    between atoms: _72  and  _73
REMARK   33  A    between atoms: _72  and  _75
REMARK   34  A    between atoms: _75  and  _76
REMARK   35  A    between atoms: _79  and  _81
REMARK   36  A    between atoms: _81  and  _82
REMARK   37  A    between atoms: _84  and  _86
REMARK   38  A    between atoms: _86  and  _87
REMARK   39  A    between atoms: _86  and  _89
REMARK   40  A    between atoms: _89  and  _90
REMARK   41  A    between atoms: _92  and  _94
REMARK   42  A    between atoms: _94  and  _95
REMARK   43  A    between atoms: _97  and  _99
REMARK   44  A    between atoms: _99  and  _100
REMARK   45  A    between atoms: _99  and  _102
REMARK   46  A    between atoms: _102  and  _103
REMARK   47  A    between atoms: _106  and  _108
REMARK   48  A    between atoms: _108  and  _109
REMARK   49  A    between atoms: _108  and  _111
REMARK   50  A    between atoms: _111  and  _112
REMARK   51  A    between atoms: _123  and  _124
REMARK   52  A    between atoms: _129  and  _131
REMARK   53  A    between atoms: _131  and  _132
REMARK   54  A    between atoms: _131  and  _134
REMARK   55  A    between atoms: _134  and  _135
REMARK   56  A    between atoms: _140  and  _142
REMARK   57  A    between atoms: _142  and  _143
REMARK   58  A    between atoms: _142  and  _145
REMARK   59  A    between atoms: _145  and  _146
REMARK   60  A    between atoms: _151  and  _153
REMARK   61  A    between atoms: _153  and  _154
REMARK   62  A    between atoms: _153  and  _156
REMARK   63  A    between atoms: _156  and  _157
REMARK   64  A    between atoms: _163  and  _164
REMARK   65  A    between atoms: _169  and  _171
REMARK   66  A    between atoms: _171  and  _172
REMARK   67  A    between atoms: _175  and  _177
REMARK   68  A    between atoms: _177  and  _178
REMARK   69  A    between atoms: _177  and  _180
REMARK   70  A    between atoms: _180  and  _181
REMARK   71  A    between atoms: _186  and  _187
REMARK   72  A    between atoms: _189  and  _191
REMARK   73  A    between atoms: _191  and  _192
REMARK   74  A    between atoms: _191  and  _194
REMARK   75  A    between atoms: _194  and  _195
REMARK   76  A    between atoms: _197  and  _199
REMARK   77  A    between atoms: _199  and  _200
REMARK   78  A    between atoms: _199  and  _202
REMARK   79  A    between atoms: _202  and  _203
REMARK   80  A    between atoms: _210  and  _211
REMARK   81  A    between atoms: _211  and  _227
REMARK   82  A    between atoms: _212  and  _214
REMARK   83  A    between atoms: _214  and  _215
REMARK   84  A    between atoms: _215  and  _216
REMARK   85  A    between atoms: _220  and  _222
REMARK   86  A    between atoms: _222  and  _223
REMARK   87  A    between atoms: _222  and  _230
REMARK   88  A    between atoms: _223  and  _224
REMARK   89  A    between atoms: _224  and  _225
REMARK   90  A    between atoms: _225  and  _226
REMARK   91  A    between atoms: _226  and  _227
REMARK   92  A    between atoms: _232  and  _234
REMARK   93  A    between atoms: _234  and  _235
REMARK   94  A    between atoms: _234  and  _237
REMARK   95  A    between atoms: _237  and  _238
REMARK   96  A    between atoms: _243  and  _244
REMARK   97  A    between atoms: _246  and  _248
REMARK   98  A    between atoms: _248  and  _249
REMARK   99  A    between atoms: _248  and  _251
REMARK  100  A    between atoms: _251  and  _252
REMARK  101  A    between atoms: _252  and  _253
REMARK  102  A    between atoms: _253  and  _254
REMARK  103  A    between atoms: _263  and  _265
REMARK  104  A    between atoms: _265  and  _266
REMARK  105  A    between atoms: _265  and  _268
REMARK  106  A    between atoms: _268  and  _269
REMARK  107  A    between atoms: _269  and  _270
REMARK  108  A    between atoms: _272  and  _274
REMARK  109  A    between atoms: _274  and  _275
REMARK  110  A    between atoms: _274  and  _277
REMARK  111  A    between atoms: _277  and  _278
REMARK  112  A    between atoms: _284  and  _286
REMARK  113  A    between atoms: _286  and  _287
REMARK  114  A    between atoms: _286  and  _289
REMARK  115  A    between atoms: _292  and  _294
REMARK  116  A    between atoms: _294  and  _295
REMARK  117  A    between atoms: _294  and  _297
REMARK  118  A    between atoms: _297  and  _298
REMARK  119  A    between atoms: _298  and  _299
REMARK  120  A    between atoms: _299  and  _300
REMARK  121  A    between atoms: _309  and  _311
REMARK  122  A    between atoms: _311  and  _312
REMARK  123  A    between atoms: _311  and  _314
REMARK  124  A    between atoms: _314  and  _315
REMARK  125  A    between atoms: _320  and  _322
REMARK  126  A    between atoms: _322  and  _323
REMARK  127  A    between atoms: _322  and  _325
REMARK  128  A    between atoms: _325  and  _326
REMARK  129  A    between atoms: _331  and  _332
REMARK  130  A    between atoms: _334  and  _336
REMARK  131  A    between atoms: _336  and  _337
REMARK  132  A    between atoms: _336  and  _339
REMARK  133  A    between atoms: _339  and  _340
REMARK  134  A    between atoms: _340  and  _341
REMARK  135  A    between atoms: _341  and  _342
REMARK  136  A    between atoms: _351  and  _353
REMARK  137  A    between atoms: _353  and  _354
REMARK  138  A    between atoms: _353  and  _356
REMARK  139  A    between atoms: _356  and  _357
REMARK  140  A    between atoms: _362  and  _363
REMARK  141  A    between atoms: _365  and  _367
REMARK  142  A    between atoms: _367  and  _368
REMARK  143  A    between atoms: _367  and  _370
REMARK  144  A    between atoms: _370  and  _371
REMARK  145  A    between atoms: _373  and  _375
REMARK  146  A    between atoms: _375  and  _376
REMARK  147  A    between atoms: _375  and  _378
REMARK  148  A    between atoms: _378  and  _379
REMARK                            x       y       z     vdW  Elec       q    Type
REMARK                         _______ _______ _______ _____ _____    ______ ____
ROOT
ATOM      1  CA  TYR A   2      81.991  57.437  39.290  0.00  0.00    +0.141 C 
ENDROOT
BRANCH   1   3
ATOM      2  C   ALA A   1      82.327  56.470  37.098  0.00  0.00    +0.238 C 
ATOM      3  N   TYR A   2      82.537  56.402  38.410  0.00  0.00    -0.298 N 
ATOM      4  H   TYR A   2      83.088  55.615  38.810  0.00  0.00    +0.150 HD
ATOM      5  O   ALA A   1      81.820  57.454  36.558  0.00  0.00    -0.274 OA
BRANCH   2   6
ATOM      6  CA  ALA A   1      82.752  55.262  36.264  0.00  0.00    +0.145 C 
ATOM      7  CB  ALA A   1      81.523  54.622  35.609  0.00  0.00    +0.028 C 
BRANCH   6   8
ATOM      8  N   ALA A   1      83.480  54.260  37.043  0.00  0.00    -0.238 NA
ATOM      9  H   ALA A   1      82.948  53.601  37.647  0.00  0.00    +0.142 HD
ENDBRANCH   6   8
ENDBRANCH   2   6
ENDBRANCH   1   3
BRANCH   1  10
ATOM     10  C   TYR A   2      83.030  58.138  40.162  0.00  0.00    +0.227 C 
ATOM     11  O   TYR A   2      82.688  58.614  41.243  0.00  0.00    -0.286 OA
ENDBRANCH   1  10
BRANCH   1  12
ATOM     12  CB  TYR A   2      80.859  56.875  40.161  0.00  0.00    +0.054 C 
BRANCH  12  13
ATOM     13  CG  TYR A   2      79.631  56.541  39.365  0.00  0.00    -0.020 A 
ATOM     14  CD2 TYR A   2      78.739  57.547  38.969  0.00  0.00    -0.001 A 
ATOM     15  CE2 TYR A   2      77.615  57.251  38.223  0.00  0.00    +0.036 A 
ATOM     16  CZ  TYR A   2      77.379  55.936  37.850  0.00  0.00    +0.134 A 
ATOM     17  CE1 TYR A   2      78.257  54.924  38.200  0.00  0.00    +0.036 A 
ATOM     18  CD1 TYR A   2      79.380  55.228  38.955  0.00  0.00    -0.001 A 
BRANCH  16  19
ATOM     19  OH  TYR A   2      76.268  55.642  37.105  0.00  0.00    -0.506 OA
ATOM     20  HH  TYR A   2      75.751  56.471  36.944  0.00  0.00    +0.292 HD
ENDBRANCH  16  19
ENDBRANCH  12  13
ENDBRANCH   1  12
TORSDOF 7
REMARK  Name = ../refined-set-2016/1toi/1toi_pocket.pdb
REMARK  148 active torsions:
REMARK  status: ('A' for Active; 'I' for Inactive)
REMARK    1  A    between atoms: _1  and  _3
REMARK    2  A    between atoms: _3  and  _4
REMARK    3  A    between atoms: _3  and  _6
REMARK    4  A    between atoms: _6  and  _7
REMARK    5  A    between atoms: _10  and  _12
REMARK    6  A    between atoms: _12  and  _13
REMARK    7  A    between atoms: _12  and  _15
REMARK    8  A    between atoms: _15  and  _16
REMARK    9  A    between atoms: _19  and  _21
REMARK   10  A    between atoms: _21  and  _22
REMARK   11  A    between atoms: _21  and  _24
REMARK   12  A    between atoms: _24  and  _25
REMARK   13  A    between atoms: _28  and  _30
REMARK   14  A    between atoms: _30  and  _31
REMARK   15  A    between atoms: _33  and  _35
REMARK   16  A    between atoms: _35  and  _36
REMARK   17  A    between atoms: _35  and  _38
REMARK   18  A    between atoms: _38  and  _39
REMARK   19  A    between atoms: _42  and  _44
REMARK   20  A    between atoms: _44  and  _45
REMARK   21  A    between atoms: _44  and  _47
REMARK   22  A    between atoms: _47  and  _48
REMARK   23  A    between atoms: _51  and  _53
REMARK   24  A    between atoms: _53  and  _54
REMARK   25  A    between atoms: _56  and  _58
REMARK   26  A    between atoms: _58  and  _59
REMARK   27  A    between atoms: _58  and  _61
REMARK   28  A    between atoms: _61  and  _62
REMARK   29  A    between atoms: _65  and  _67
REMARK   30  A    between atoms: _67  and  _68
REMARK   31  A    between atoms: _70  and  _72
REMARK   32  A    between atoms: _72  and  _73
REMARK   33  A    between atoms: _72  and  _75
REMARK   34  A    between atoms: _75  and  _76
REMARK   35  A    between atoms: _79  and  _81
REMARK   36  A    between atoms: _81  and  _82
REMARK   37  A    between atoms: _84  and  _86
REMARK   38  A    between atoms: _86  and  _87
REMARK   39  A    between atoms: _86  and  _89
REMARK   40  A    between atoms: _89  and  _90
REMARK   41  A    between atoms: _92  and  _94
REMARK   42  A    between atoms: _94  and  _95
REMARK   43  A    between atoms: _97  and  _99
REMARK   44  A    between atoms: _99  and  _100
REMARK   45  A    between atoms: _99  and  _102
REMARK   46  A    between atoms: _102  and  _103
REMARK   47  A    between atoms: _106  and  _108
REMARK   48  A    between atoms: _108  and  _109
REMARK   49  A    between atoms: _108  and  _111
REMARK   50  A    between atoms: _111  and  _112
REMARK   51  A    between atoms: _123  and  _124
REMARK   52  A    between atoms: _129  and  _131
REMARK   53  A    between atoms: _131  and  _132
REMARK   54  A    between atoms: _131  and  _134
REMARK   55  A    between atoms: _134  and  _135
REMARK   56  A    between atoms: _140  and  _142
REMARK   57  A    between atoms: _142  and  _143
REMARK   58  A    between atoms: _142  and  _145
REMARK   59  A    between atoms: _145  and  _146
REMARK   60  A    between atoms: _151  and  _153
REMARK   61  A    between atoms: _153  and  _154
REMARK   62  A    between atoms: _153  and  _156
REMARK   63  A    between atoms: _156  and  _157
REMARK   64  A    between atoms: _163  and  _164
REMARK   65  A    between atoms: _169  and  _171
REMARK   66  A    between atoms: _171  and  _172
REMARK   67  A    between atoms: _175  and  _177
REMARK   68  A    between atoms: _177  and  _178
REMARK   69  A    between atoms: _177  and  _180
REMARK   70  A    between atoms: _180  and  _181
REMARK   71  A    between atoms: _186  and  _187
REMARK   72  A    between atoms: _189  and  _191
REMARK   73  A    between atoms: _191  and  _192
REMARK   74  A    between atoms: _191  and  _194
REMARK   75  A    between atoms: _194  and  _195
REMARK   76  A    between atoms: _197  and  _199
REMARK   77  A    between atoms: _199  and  _200
REMARK   78  A    between atoms: _199  and  _202
REMARK   79  A    between atoms: _202  and  _203
REMARK   80  A    between atoms: _210  and  _211
REMARK   81  A    between atoms: _211  and  _227
REMARK   82  A    between atoms: _212  and  _214
REMARK   83  A    between atoms: _214  and  _215
REMARK   84  A    between atoms: _215  and  _216
REMARK   85  A    between atoms: _220  and  _222
REMARK   86  A    between atoms: _222  and  _223
REMARK   87  A    between atoms: _222  and  _230
REMARK   88  A    between atoms: _223  and  _224
REMARK   89  A    between atoms: _224  and  _225
REMARK   90  A    between atoms: _225  and  _226
REMARK   91  A    between atoms: _226  and  _227
REMARK   92  A    between atoms: _232  and  _234
REMARK   93  A    between atoms: _234  and  _235
REMARK   94  A    between atoms: _234  and  _237
REMARK   95  A    between atoms: _237  and  _238
REMARK   96  A    between atoms: _243  and  _244
REMARK   97  A    between atoms: _246  and  _248
REMARK   98  A    between atoms: _248  and  _249
REMARK   99  A    between atoms: _248  and  _251
REMARK  100  A    between atoms: _251  and  _252
REMARK  101  A    between atoms: _252  and  _253
REMARK  102  A    between atoms: _253  and  _254
REMARK  103  A    between atoms: _263  and  _265
REMARK  104  A    between atoms: _265  and  _266
REMARK  105  A    between atoms: _265  and  _268
REMARK  106  A    between atoms: _268  and  _269
REMARK  107  A    between atoms: _269  and  _270
REMARK  108  A    between atoms: _272  and  _274
REMARK  109  A    between atoms: _274  and  _275
REMARK  110  A    between atoms: _274  and  _277
REMARK  111  A    between atoms: _277  and  _278
REMARK  112  A    between atoms: _284  and  _286
REMARK  113  A    between atoms: _286  and  _287
REMARK  114  A    between atoms: _286  and  _289
REMARK  115  A    between atoms: _292  and  _294
REMARK  116  A    between atoms: _294  and  _295
REMARK  117  A    between atoms: _294  and  _297
REMARK  118  A    between atoms: _297  and  _298
REMARK  119  A    between atoms: _298  and  _299
REMARK  120  A    between atoms: _299  and  _300
REMARK  121  A    between atoms: _309  and  _311
REMARK  122  A    between atoms: _311  and  _312
REMARK  123  A    between atoms: _311  and  _314
REMARK  124  A    between atoms: _314  and  _315
REMARK  125  A    between atoms: _320  and  _322
REMARK  126  A    between atoms: _322  and  _323
REMARK  127  A    between atoms: _322  and  _325
REMARK  128  A    between atoms: _325  and  _326
REMARK  129  A    between atoms: _331  and  _332
REMARK  130  A    between atoms: _334  and  _336
REMARK  131  A    between atoms: _336  and  _337
REMARK  132  A    between atoms: _336  and  _339
REMARK  133  A    between atoms: _339  and  _340
REMARK  134  A    between atoms: _340  and  _341
REMARK  135  A    between atoms: _341  and  _342
REMARK  136  A    between atoms: _351  and  _353
REMARK  137  A    between atoms: _353  and  _354
REMARK  138  A    between atoms: _353  and  _356
REMARK  139  A    between atoms: _356  and  _357
REMARK  140  A    between atoms: _362  and  _363
REMARK  141  A    between atoms: _365  and  _367
REMARK  142  A    between atoms: _367  and  _368
REMARK  143  A    between atoms: _367  and  _370
REMARK  144  A    between atoms: _370  and  _371
REMARK  145  A    between atoms: _373  and  _375
REMARK  146  A    between atoms: _375  and  _376
REMARK  147  A    between atoms: _375  and  _378
REMARK  148  A    between atoms: _378  and  _379
REMARK                            x       y       z     vdW  Elec       q    Type
REMARK                         _______ _______ _______ _____ _____    ______ ____
ROOT
ATOM      1  CA  SER A   1      84.800  56.655  32.472  0.00  0.00    +0.163 C 
ENDROOT
BRANCH   1   2
ATOM      2  N   SER A   1      85.677  55.851  33.323  0.00  0.00    -0.237 NA
ATOM      3  H   SER A   1      85.718  56.032  34.346  0.00  0.00    +0.142 HD
ENDBRANCH   1   2
BRANCH   1   4
ATOM      4  CB  SER A   1      84.838  58.104  32.892  0.00  0.00    +0.227 C 
ATOM      5  OG  SER A   1      84.855  58.397  34.089  0.00  0.00    -0.287 OA
ENDBRANCH   1   4
BRANCH   1   6
ATOM      6  C   SER A   1      83.348  56.164  32.594  0.00  0.00    +0.162 C 
BRANCH   6   7
ATOM      7  O   SER A   1      82.489  57.015  31.836  0.00  0.00    -0.380 OA
ATOM      8  H   SER A   1      82.764  56.997  30.885  0.00  0.00    +0.211 HD
ENDBRANCH   6   7
ENDBRANCH   1   6
TORSDOF 4
REMARK  Name = ../refined-set-2016/1toi/1toi_pocket.pdb
REMARK  148 active torsions:
REMARK  status: ('A' for Active; 'I' for Inactive)
REMARK    1  A    between atoms: _1  and  _3
REMARK    2  A    between atoms: _3  and  _4
REMARK    3  A    between atoms: _3  and  _6
REMARK    4  A    between atoms: _6  and  _7
REMARK    5  A    between atoms: _10  and  _12
REMARK    6  A    between atoms: _12  and  _13
REMARK    7  A    between atoms: _12  and  _15
REMARK    8  A    between atoms: _15  and  _16
REMARK    9  A    between atoms: _19  and  _21
REMARK   10  A    between atoms: _21  and  _22
REMARK   11  A    between atoms: _21  and  _24
REMARK   12  A    between atoms: _24  and  _25
REMARK   13  A    between atoms: _28  and  _30
REMARK   14  A    between atoms: _30  and  _31
REMARK   15  A    between atoms: _33  and  _35
REMARK   16  A    between atoms: _35  and  _36
REMARK   17  A    between atoms: _35  and  _38
REMARK   18  A    between atoms: _38  and  _39
REMARK   19  A    between atoms: _42  and  _44
REMARK   20  A    between atoms: _44  and  _45
REMARK   21  A    between atoms: _44  and  _47
REMARK   22  A    between atoms: _47  and  _48
REMARK   23  A    between atoms: _51  and  _53
REMARK   24  A    between atoms: _53  and  _54
REMARK   25  A    between atoms: _56  and  _58
REMARK   26  A    between atoms: _58  and  _59
REMARK   27  A    between atoms: _58  and  _61
REMARK   28  A    between atoms: _61  and  _62
REMARK   29  A    between atoms: _65  and  _67
REMARK   30  A    between atoms: _67  and  _68
REMARK   31  A    between atoms: _70  and  _72
REMARK   32  A    between atoms: _72  and  _73
REMARK   33  A    between atoms: _72  and  _75
REMARK   34  A    between atoms: _75  and  _76
REMARK   35  A    between atoms: _79  and  _81
REMARK   36  A    between atoms: _81  and  _82
REMARK   37  A    between atoms: _84  and  _86
REMARK   38  A    between atoms: _86  and  _87
REMARK   39  A    between atoms: _86  and  _89
REMARK   40  A    between atoms: _89  and  _90
REMARK   41  A    between atoms: _92  and  _94
REMARK   42  A    between atoms: _94  and  _95
REMARK   43  A    between atoms: _97  and  _99
REMARK   44  A    between atoms: _99  and  _100
REMARK   45  A    between atoms: _99  and  _102
REMARK   46  A    between atoms: _102  and  _103
REMARK   47  A    between atoms: _106  and  _108
REMARK   48  A    between atoms: _108  and  _109
REMARK   49  A    between atoms: _108  and  _111
REMARK   50  A    between atoms: _111  and  _112
REMARK   51  A    between atoms: _123  and  _124
REMARK   52  A    between atoms: _129  and  _131
REMARK   53  A    between atoms: _131  and  _132
REMARK   54  A    between atoms: _131  and  _134
REMARK   55  A    between atoms: _134  and  _135
REMARK   56  A    between atoms: _140  and  _142
REMARK   57  A    between atoms: _142  and  _143
REMARK   58  A    between atoms: _142  and  _145
REMARK   59  A    between atoms: _145  and  _146
REMARK   60  A    between atoms: _151  and  _153
REMARK   61  A    between atoms: _153  and  _154
REMARK   62  A    between atoms: _153  and  _156
REMARK   63  A    between atoms: _156  and  _157
REMARK   64  A    between atoms: _163  and  _164
REMARK   65  A    between atoms: _169  and  _171
REMARK   66  A    between atoms: _171  and  _172
REMARK   67  A    between atoms: _175  and  _177
REMARK   68  A    between atoms: _177  and  _178
REMARK   69  A    between atoms: _177  and  _180
REMARK   70  A    between atoms: _180  and  _181
REMARK   71  A    between atoms: _186  and  _187
REMARK   72  A    between atoms: _189  and  _191
REMARK   73  A    between atoms: _191  and  _192
REMARK   74  A    between atoms: _191  and  _194
REMARK   75  A    between atoms: _194  and  _195
REMARK   76  A    between atoms: _197  and  _199
REMARK   77  A    between atoms: _199  and  _200
REMARK   78  A    between atoms: _199  and  _202
REMARK   79  A    between atoms: _202  and  _203
REMARK   80  A    between atoms: _210  and  _211
REMARK   81  A    between atoms: _211  and  _227
REMARK   82  A    between atoms: _212  and  _214
REMARK   83  A    between atoms: _214  and  _215
REMARK   84  A    between atoms: _215  and  _216
REMARK   85  A    between atoms: _220  and  _222
REMARK   86  A    between atoms: _222  and  _223
REMARK   87  A    between atoms: _222  and  _230
REMARK   88  A    between atoms: _223  and  _224
REMARK   89  A    between atoms: _224  and  _225
REMARK   90  A    between atoms: _225  and  _226
REMARK   91  A    between atoms: _226  and  _227
REMARK   92  A    between atoms: _232  and  _234
REMARK   93  A    between atoms: _234  and  _235
REMARK   94  A    between atoms: _234  and  _237
REMARK   95  A    between atoms: _237  and  _238
REMARK   96  A    between atoms: _243  and  _244
REMARK   97  A    between atoms: _246  and  _248
REMARK   98  A    between atoms: _248  and  _249
REMARK   99  A    between atoms: _248  and  _251
REMARK  100  A    between atoms: _251  and  _252
REMARK  101  A    between atoms: _252  and  _253
REMARK  102  A    between atoms: _253  and  _254
REMARK  103  A    between atoms: _263  and  _265
REMARK  104  A    between atoms: _265  and  _266
REMARK  105  A    between atoms: _265  and  _268
REMARK  106  A    between atoms: _268  and  _269
REMARK  107  A    between atoms: _269  and  _270
REMARK  108  A    between atoms: _272  and  _274
REMARK  109  A    between atoms: _274  and  _275
REMARK  110  A    between atoms: _274  and  _277
REMARK  111  A    between atoms: _277  and  _278
REMARK  112  A    between atoms: _284  and  _286
REMARK  113  A    between atoms: _286  and  _287
REMARK  114  A    between atoms: _286  and  _289
REMARK  115  A    between atoms: _292  and  _294
REMARK  116  A    between atoms: _294  and  _295
REMARK  117  A    between atoms: _294  and  _297
REMARK  118  A    between atoms: _297  and  _298
REMARK  119  A    between atoms: _298  and  _299
REMARK  120  A    between atoms: _299  and  _300
REMARK  121  A    between atoms: _309  and  _311
REMARK  122  A    between atoms: _311  and  _312
REMARK  123  A    between atoms: _311  and  _314
REMARK  124  A    between atoms: _314  and  _315
REMARK  125  A    between atoms: _320  and  _322
REMARK  126  A    between atoms: _322  and  _323
REMARK  127  A    between atoms: _322  and  _325
REMARK  128  A    between atoms: _325  and  _326
REMARK  129  A    between atoms: _331  and  _332
REMARK  130  A    between atoms: _334  and  _336
REMARK  131  A    between atoms: _336  and  _337
REMARK  132  A    between atoms: _336  and  _339
REMARK  133  A    between atoms: _339  and  _340
REMARK  134  A    between atoms: _340  and  _341
REMARK  135  A    between atoms: _341  and  _342
REMARK  136  A    between atoms: _351  and  _353
REMARK  137  A    between atoms: _353  and  _354
REMARK  138  A    between atoms: _353  and  _356
REMARK  139  A    between atoms: _356  and  _357
REMARK  140  A    between atoms: _362  and  _363
REMARK  141  A    between atoms: _365  and  _367
REMARK  142  A    between atoms: _367  and  _368
REMARK  143  A    between atoms: _367  and  _370
REMARK  144  A    between atoms: _370  and  _371
REMARK  145  A    between atoms: _373  and  _375
REMARK  146  A    between atoms: _375  and  _376
REMARK  147  A    between atoms: _375  and  _378
REMARK  148  A    between atoms: _378  and  _379
REMARK                            x       y       z     vdW  Elec       q    Type
REMARK                         _______ _______ _______ _____ _____    ______ ____
ROOT
ATOM      1  N   UNK A   2      77.763  55.504  34.556  0.00  0.00    +0.387 N 
ATOM      2  H   UNK A   2      78.429  55.461  35.354  0.00  0.00    -0.084 HD
ATOM      3  H   UNK A   2      76.871  55.042  34.825  0.00  0.00    -0.084 HD
ENDROOT
BRANCH   1   4
ATOM      4  C   UNK A   2      77.499  56.935  34.200  0.00  0.00    -0.081 C 
BRANCH   4   5
ATOM      5  C   UNK A   2      78.627  57.871  34.700  0.00  0.00    -0.023 C 
BRANCH   5   6
ATOM      6  C   UNK A   2      78.056  59.226  35.113  0.00  0.00    -0.000 C 
BRANCH   6   7
ATOM      7  C   UNK A   2      79.162  60.179  35.608  0.00  0.00    +0.028 C 
BRANCH   7   8
ATOM      8  C   UNK A   2      79.536  61.272  34.589  0.00  0.00    +0.137 C 
BRANCH   8  10
ATOM      9  C   SER A   1      80.170  61.144  32.252  0.00  0.00    +0.241 C 
ATOM     10  N   UNK A   2      80.319  60.711  33.496  0.00  0.00    -0.298 N 
ATOM     11  H   UNK A   2      81.007  59.957  33.695  0.00  0.00    +0.150 HD
ATOM     12  O   SER A   1      79.475  62.118  31.955  0.00  0.00    -0.274 OA
BRANCH   9  13
ATOM     13  CA  SER A   1      80.869  60.320  31.176  0.00  0.00    +0.174 C 
BRANCH  13  14
ATOM     14  N   SER A   1      82.258  59.982  31.519  0.00  0.00    -0.236 NA
ATOM     15  H   SER A   1      82.550  58.984  31.508  0.00  0.00    +0.142 HD
ENDBRANCH  13  14
BRANCH  13  16
ATOM     16  CB  SER A   1      80.056  59.051  30.914  0.00  0.00    +0.163 C 
BRANCH  16  17
ATOM     17  OG  SER A   1      80.399  58.531  29.640  0.00  0.00    -0.380 OA
ATOM     18  H   SER A   1      79.874  57.709  29.468  0.00  0.00    +0.211 HD
ENDBRANCH  16  17
ENDBRANCH  13  16
ENDBRANCH   9  13
ENDBRANCH   8  10
BRANCH   8  19
ATOM     19  C   UNK A   2      80.302  62.422  35.246  0.00  0.00    +0.227 C 
ATOM     20  O   UNK A   2      79.755  63.528  35.437  0.00  0.00    -0.286 OA
ENDBRANCH   8  19
ENDBRANCH   7   8
ENDBRANCH   6   7
ENDBRANCH   5   6
ENDBRANCH   4   5
ENDBRANCH   1   4
BRANCH   1  21
ATOM     21  C   UNK A   2      78.284  54.885  33.510  0.00  0.00    -0.051 C 
BRANCH  21  22
ATOM     22  C   UNK A   2      78.817  53.507  33.821  0.00  0.00    -0.007 C 
ATOM     23  C   UNK A   2      79.801  52.935  32.981  0.00  0.00    +0.023 C 
ATOM     24  C   UNK A   2      80.316  51.671  33.233  0.00  0.00    +0.091 C 
ATOM     25  N   UNK A   2      79.845  50.951  34.298  0.00  0.00    -0.263 NA
ATOM     26  C   UNK A   2      78.880  51.474  35.130  0.00  0.00    +0.164 C 
ATOM     27  C   UNK A   2      78.423  50.624  36.281  0.00  0.00    +0.035 C 
ATOM     28  C   UNK A   2      78.343  52.751  34.912  0.00  0.00    +0.189 C 
ATOM     29  O   UNK A   2      77.456  53.185  35.680  0.00  0.00    -0.290 OA
BRANCH  23  30
ATOM     30  C   UNK A   2      80.411  53.647  31.819  0.00  0.00    +0.181 C 
BRANCH  30  31
ATOM     31  O   UNK A   2      79.551  54.314  30.878  0.00  0.00    -0.265 OA
BRANCH  31  32
ATOM     32  P   UNK A   2      80.237  55.014  29.620  0.00  0.00    +0.533 P 
ATOM     33  O   UNK A   2      79.229  56.072  29.320  0.00  0.00    -0.115 OA
ATOM     34  O   UNK A   2      80.339  53.943  28.589  0.00  0.00    -0.115 OA
ATOM     35  O   UNK A   2      81.544  55.542  30.050  0.00  0.00    -0.222 OA
ENDBRANCH  31  32
ENDBRANCH  30  31
ENDBRANCH  23  30
ENDBRANCH  21  22
ENDBRANCH   1  21
TORSDOF 16
REMARK  Name = ../refined-set-2016/1toi/1toi_pocket.pdb
REMARK  148 active torsions:
REMARK  status: ('A' for Active; 'I' for Inactive)
REMARK    1  A    between atoms: _1  and  _3
REMARK    2  A    between atoms: _3  and  _4
REMARK    3  A    between atoms: _3  and  _6
REMARK    4  A    between atoms: _6  and  _7
REMARK    5  A    between atoms: _10  and  _12
REMARK    6  A    between atoms: _12  and  _13
REMARK    7  A    between atoms: _12  and  _15
REMARK    8  A    between atoms: _15  and  _16
REMARK    9  A    between atoms: _19  and  _21
REMARK   10  A    between atoms: _21  and  _22
REMARK   11  A    between atoms: _21  and  _24
REMARK   12  A    between atoms: _24  and  _25
REMARK   13  A    between atoms: _28  and  _30
REMARK   14  A    between atoms: _30  and  _31
REMARK   15  A    between atoms: _33  and  _35
REMARK   16  A    between atoms: _35  and  _36
REMARK   17  A    between atoms: _35  and  _38
REMARK   18  A    between atoms: _38  and  _39
REMARK   19  A    between atoms: _42  and  _44
REMARK   20  A    between atoms: _44  and  _45
REMARK   21  A    between atoms: _44  and  _47
REMARK   22  A    between atoms: _47  and  _48
REMARK   23  A    between atoms: _51  and  _53
REMARK   24  A    between atoms: _53  and  _54
REMARK   25  A    between atoms: _56  and  _58
REMARK   26  A    between atoms: _58  and  _59
REMARK   27  A    between atoms: _58  and  _61
REMARK   28  A    between atoms: _61  and  _62
REMARK   29  A    between atoms: _65  and  _67
REMARK   30  A    between atoms: _67  and  _68
REMARK   31  A    between atoms: _70  and  _72
REMARK   32  A    between atoms: _72  and  _73
REMARK   33  A    between atoms: _72  and  _75
REMARK   34  A    between atoms: _75  and  _76
REMARK   35  A    between atoms: _79  and  _81
REMARK   36  A    between atoms: _81  and  _82
REMARK   37  A    between atoms: _84  and  _86
REMARK   38  A    between atoms: _86  and  _87
REMARK   39  A    between atoms: _86  and  _89
REMARK   40  A    between atoms: _89  and  _90
REMARK   41  A    between atoms: _92  and  _94
REMARK   42  A    between atoms: _94  and  _95
REMARK   43  A    between atoms: _97  and  _99
REMARK   44  A    between atoms: _99  and  _100
REMARK   45  A    between atoms: _99  and  _102
REMARK   46  A    between atoms: _102  and  _103
REMARK   47  A    between atoms: _106  and  _108
REMARK   48  A    between atoms: _108  and  _109
REMARK   49  A    between atoms: _108  and  _111
REMARK   50  A    between atoms: _111  and  _112
REMARK   51  A    between atoms: _123  and  _124
REMARK   52  A    between atoms: _129  and  _131
REMARK   53  A    between atoms: _131  and  _132
REMARK   54  A    between atoms: _131  and  _134
REMARK   55  A    between atoms: _134  and  _135
REMARK   56  A    between atoms: _140  and  _142
REMARK   57  A    between atoms: _142  and  _143
REMARK   58  A    between atoms: _142  and  _145
REMARK   59  A    between atoms: _145  and  _146
REMARK   60  A    between atoms: _151  and  _153
REMARK   61  A    between atoms: _153  and  _154
REMARK   62  A    between atoms: _153  and  _156
REMARK   63  A    between atoms: _156  and  _157
REMARK   64  A    between atoms: _163  and  _164
REMARK   65  A    between atoms: _169  and  _171
REMARK   66  A    between atoms: _171  and  _172
REMARK   67  A    between atoms: _175  and  _177
REMARK   68  A    between atoms: _177  and  _178
REMARK   69  A    between atoms: _177  and  _180
REMARK   70  A    between atoms: _180  and  _181
REMARK   71  A    between atoms: _186  and  _187
REMARK   72  A    between atoms: _189  and  _191
REMARK   73  A    between atoms: _191  and  _192
REMARK   74  A    between atoms: _191  and  _194
REMARK   75  A    between atoms: _194  and  _195
REMARK   76  A    between atoms: _197  and  _199
REMARK   77  A    between atoms: _199  and  _200
REMARK   78  A    between atoms: _199  and  _202
REMARK   79  A    between atoms: _202  and  _203
REMARK   80  A    between atoms: _210  and  _211
REMARK   81  A    between atoms: _211  and  _227
REMARK   82  A    between atoms: _212  and  _214
REMARK   83  A    between atoms: _214  and  _215
REMARK   84  A    between atoms: _215  and  _216
REMARK   85  A    between atoms: _220  and  _222
REMARK   86  A    between atoms: _222  and  _223
REMARK   87  A    between atoms: _222  and  _230
REMARK   88  A    between atoms: _223  and  _224
REMARK   89  A    between atoms: _224  and  _225
REMARK   90  A    between atoms: _225  and  _226
REMARK   91  A    between atoms: _226  and  _227
REMARK   92  A    between atoms: _232  and  _234
REMARK   93  A    between atoms: _234  and  _235
REMARK   94  A    between atoms: _234  and  _237
REMARK   95  A    between atoms: _237  and  _238
REMARK   96  A    between atoms: _243  and  _244
REMARK   97  A    between atoms: _246  and  _248
REMARK   98  A    between atoms: _248  and  _249
REMARK   99  A    between atoms: _248  and  _251
REMARK  100  A    between atoms: _251  and  _252
REMARK  101  A    between atoms: _252  and  _253
REMARK  102  A    between atoms: _253  and  _254
REMARK  103  A    between atoms: _263  and  _265
REMARK  104  A    between atoms: _265  and  _266
REMARK  105  A    between atoms: _265  and  _268
REMARK  106  A    between atoms: _268  and  _269
REMARK  107  A    between atoms: _269  and  _270
REMARK  108  A    between atoms: _272  and  _274
REMARK  109  A    between atoms: _274  and  _275
REMARK  110  A    between atoms: _274  and  _277
REMARK  111  A    between atoms: _277  and  _278
REMARK  112  A    between atoms: _284  and  _286
REMARK  113  A    between atoms: _286  and  _287
REMARK  114  A    between atoms: _286  and  _289
REMARK  115  A    between atoms: _292  and  _294
REMARK  116  A    between atoms: _294  and  _295
REMARK  117  A    between atoms: _294  and  _297
REMARK  118  A    between atoms: _297  and  _298
REMARK  119  A    between atoms: _298  and  _299
REMARK  120  A    between atoms: _299  and  _300
REMARK  121  A    between atoms: _309  and  _311
REMARK  122  A    between atoms: _311  and  _312
REMARK  123  A    between atoms: _311  and  _314
REMARK  124  A    between atoms: _314  and  _315
REMARK  125  A    between atoms: _320  and  _322
REMARK  126  A    between atoms: _322  and  _323
REMARK  127  A    between atoms: _322  and  _325
REMARK  128  A    between atoms: _325  and  _326
REMARK  129  A    between atoms: _331  and  _332
REMARK  130  A    between atoms: _334  and  _336
REMARK  131  A    between atoms: _336  and  _337
REMARK  132  A    between atoms: _336  and  _339
REMARK  133  A    between atoms: _339  and  _340
REMARK  134  A    between atoms: _340  and  _341
REMARK  135  A    between atoms: _341  and  _342
REMARK  136  A    between atoms: _351  and  _353
REMARK  137  A    between atoms: _353  and  _354
REMARK  138  A    between atoms: _353  and  _356
REMARK  139  A    between atoms: _356  and  _357
REMARK  140  A    between atoms: _362  and  _363
REMARK  141  A    between atoms: _365  and  _367
REMARK  142  A    between atoms: _367  and  _368
REMARK  143  A    between atoms: _367  and  _370
REMARK  144  A    between atoms: _370  and  _371
REMARK  145  A    between atoms: _373  and  _375
REMARK  146  A    between atoms: _375  and  _376
REMARK  147  A    between atoms: _375  and  _378
REMARK  148  A    between atoms: _378  and  _379
REMARK                            x       y       z     vdW  Elec       q    Type
REMARK                         _______ _______ _______ _____ _____    ______ ____
ROOT
ATOM      1  CG  TYR A   1      76.412  61.606  29.991  0.00  0.00    -0.020 A 
ATOM      2  CD2 TYR A   1      76.370  60.742  31.080  0.00  0.00    -0.001 A 
ATOM      3  CE2 TYR A   1      76.138  61.221  32.382  0.00  0.00    +0.036 A 
ATOM      4  CZ  TYR A   1      75.910  62.572  32.594  0.00  0.00    +0.134 A 
ATOM      5  CE1 TYR A   1      75.927  63.467  31.519  0.00  0.00    +0.036 A 
ATOM      6  CD1 TYR A   1      76.157  62.969  30.212  0.00  0.00    -0.001 A 
ENDROOT
BRANCH   4   7
ATOM      7  OH  TYR A   1      75.678  63.024  33.883  0.00  0.00    -0.506 OA
ATOM      8  HH  TYR A   1      76.378  63.678  34.133  0.00  0.00    +0.292 HD
ENDBRANCH   4   7
BRANCH   1   9
ATOM      9  CB  TYR A   1      76.664  61.075  28.588  0.00  0.00    +0.051 C 
BRANCH   9  10
ATOM     10  CA  TYR A   1      78.149  61.064  28.178  0.00  0.00    +0.137 C 
BRANCH  10  11
ATOM     11  N   TYR A   1      78.798  62.316  28.562  0.00  0.00    -0.239 NA
ATOM     12  H   TYR A   1      78.352  62.889  29.307  0.00  0.00    +0.142 HD
ENDBRANCH  10  11
BRANCH  10  13
ATOM     13  C   TYR A   1      78.264  60.746  26.689  0.00  0.00    +0.224 C 
ATOM     14  O   TYR A   1      78.808  59.704  26.325  0.00  0.00    -0.287 OA
ENDBRANCH  10  13
ENDBRANCH   9  10
ENDBRANCH   1   9
TORSDOF 5
REMARK  Name = ../refined-set-2016/1toi/1toi_pocket.pdb
REMARK  148 active torsions:
REMARK  status: ('A' for Active; 'I' for Inactive)
REMARK    1  A    between atoms: _1  and  _3
REMARK    2  A    between atoms: _3  and  _4
REMARK    3  A    between atoms: _3  and  _6
REMARK    4  A    between atoms: _6  and  _7
REMARK    5  A    between atoms: _10  and  _12
REMARK    6  A    between atoms: _12  and  _13
REMARK    7  A    between atoms: _12  and  _15
REMARK    8  A    between atoms: _15  and  _16
REMARK    9  A    between atoms: _19  and  _21
REMARK   10  A    between atoms: _21  and  _22
REMARK   11  A    between atoms: _21  and  _24
REMARK   12  A    between atoms: _24  and  _25
REMARK   13  A    between atoms: _28  and  _30
REMARK   14  A    between atoms: _30  and  _31
REMARK   15  A    between atoms: _33  and  _35
REMARK   16  A    between atoms: _35  and  _36
REMARK   17  A    between atoms: _35  and  _38
REMARK   18  A    between atoms: _38  and  _39
REMARK   19  A    between atoms: _42  and  _44
REMARK   20  A    between atoms: _44  and  _45
REMARK   21  A    between atoms: _44  and  _47
REMARK   22  A    between atoms: _47  and  _48
REMARK   23  A    between atoms: _51  and  _53
REMARK   24  A    between atoms: _53  and  _54
REMARK   25  A    between atoms: _56  and  _58
REMARK   26  A    between atoms: _58  and  _59
REMARK   27  A    between atoms: _58  and  _61
REMARK   28  A    between atoms: _61  and  _62
REMARK   29  A    between atoms: _65  and  _67
REMARK   30  A    between atoms: _67  and  _68
REMARK   31  A    between atoms: _70  and  _72
REMARK   32  A    between atoms: _72  and  _73
REMARK   33  A    between atoms: _72  and  _75
REMARK   34  A    between atoms: _75  and  _76
REMARK   35  A    between atoms: _79  and  _81
REMARK   36  A    between atoms: _81  and  _82
REMARK   37  A    between atoms: _84  and  _86
REMARK   38  A    between atoms: _86  and  _87
REMARK   39  A    between atoms: _86  and  _89
REMARK   40  A    between atoms: _89  and  _90
REMARK   41  A    between atoms: _92  and  _94
REMARK   42  A    between atoms: _94  and  _95
REMARK   43  A    between atoms: _97  and  _99
REMARK   44  A    between atoms: _99  and  _100
REMARK   45  A    between atoms: _99  and  _102
REMARK   46  A    between atoms: _102  and  _103
REMARK   47  A    between atoms: _106  and  _108
REMARK   48  A    between atoms: _108  and  _109
REMARK   49  A    between atoms: _108  and  _111
REMARK   50  A    between atoms: _111  and  _112
REMARK   51  A    between atoms: _123  and  _124
REMARK   52  A    between atoms: _129  and  _131
REMARK   53  A    between atoms: _131  and  _132
REMARK   54  A    between atoms: _131  and  _134
REMARK   55  A    between atoms: _134  and  _135
REMARK   56  A    between atoms: _140  and  _142
REMARK   57  A    between atoms: _142  and  _143
REMARK   58  A    between atoms: _142  and  _145
REMARK   59  A    between atoms: _145  and  _146
REMARK   60  A    between atoms: _151  and  _153
REMARK   61  A    between atoms: _153  and  _154
REMARK   62  A    between atoms: _153  and  _156
REMARK   63  A    between atoms: _156  and  _157
REMARK   64  A    between atoms: _163  and  _164
REMARK   65  A    between atoms: _169  and  _171
REMARK   66  A    between atoms: _171  and  _172
REMARK   67  A    between atoms: _175  and  _177
REMARK   68  A    between atoms: _177  and  _178
REMARK   69  A    between atoms: _177  and  _180
REMARK   70  A    between atoms: _180  and  _181
REMARK   71  A    between atoms: _186  and  _187
REMARK   72  A    between atoms: _189  and  _191
REMARK   73  A    between atoms: _191  and  _192
REMARK   74  A    between atoms: _191  and  _194
REMARK   75  A    between atoms: _194  and  _195
REMARK   76  A    between atoms: _197  and  _199
REMARK   77  A    between atoms: _199  and  _200
REMARK   78  A    between atoms: _199  and  _202
REMARK   79  A    between atoms: _202  and  _203
REMARK   80  A    between atoms: _210  and  _211
REMARK   81  A    between atoms: _211  and  _227
REMARK   82  A    between atoms: _212  and  _214
REMARK   83  A    between atoms: _214  and  _215
REMARK   84  A    between atoms: _215  and  _216
REMARK   85  A    between atoms: _220  and  _222
REMARK   86  A    between atoms: _222  and  _223
REMARK   87  A    between atoms: _222  and  _230
REMARK   88  A    between atoms: _223  and  _224
REMARK   89  A    between atoms: _224  and  _225
REMARK   90  A    between atoms: _225  and  _226
REMARK   91  A    between atoms: _226  and  _227
REMARK   92  A    between atoms: _232  and  _234
REMARK   93  A    between atoms: _234  and  _235
REMARK   94  A    between atoms: _234  and  _237
REMARK   95  A    between atoms: _237  and  _238
REMARK   96  A    between atoms: _243  and  _244
REMARK   97  A    between atoms: _246  and  _248
REMARK   98  A    between atoms: _248  and  _249
REMARK   99  A    between atoms: _248  and  _251
REMARK  100  A    between atoms: _251  and  _252
REMARK  101  A    between atoms: _252  and  _253
REMARK  102  A    between atoms: _253  and  _254
REMARK  103  A    between atoms: _263  and  _265
REMARK  104  A    between atoms: _265  and  _266
REMARK  105  A    between atoms: _265  and  _268
REMARK  106  A    between atoms: _268  and  _269
REMARK  107  A    between atoms: _269  and  _270
REMARK  108  A    between atoms: _272  and  _274
REMARK  109  A    between atoms: _274  and  _275
REMARK  110  A    between atoms: _274  and  _277
REMARK  111  A    between atoms: _277  and  _278
REMARK  112  A    between atoms: _284  and  _286
REMARK  113  A    between atoms: _286  and  _287
REMARK  114  A    between atoms: _286  and  _289
REMARK  115  A    between atoms: _292  and  _294
REMARK  116  A    between atoms: _294  and  _295
REMARK  117  A    between atoms: _294  and  _297
REMARK  118  A    between atoms: _297  and  _298
REMARK  119  A    between atoms: _298  and  _299
REMARK  120  A    between atoms: _299  and  _300
REMARK  121  A    between atoms: _309  and  _311
REMARK  122  A    between atoms: _311  and  _312
REMARK  123  A    between atoms: _311  and  _314
REMARK  124  A    between atoms: _314  and  _315
REMARK  125  A    between atoms: _320  and  _322
REMARK  126  A    between atoms: _322  and  _323
REMARK  127  A    between atoms: _322  and  _325
REMARK  128  A    between atoms: _325  and  _326
REMARK  129  A    between atoms: _331  and  _332
REMARK  130  A    between atoms: _334  and  _336
REMARK  131  A    between atoms: _336  and  _337
REMARK  132  A    between atoms: _336  and  _339
REMARK  133  A    between atoms: _339  and  _340
REMARK  134  A    between atoms: _340  and  _341
REMARK  135  A    between atoms: _341  and  _342
REMARK  136  A    between atoms: _351  and  _353
REMARK  137  A    between atoms: _353  and  _354
REMARK  138  A    between atoms: _353  and  _356
REMARK  139  A    between atoms: _356  and  _357
REMARK  140  A    between atoms: _362  and  _363
REMARK  141  A    between atoms: _365  and  _367
REMARK  142  A    between atoms: _367  and  _368
REMARK  143  A    between atoms: _367  and  _370
REMARK  144  A    between atoms: _370  and  _371
REMARK  145  A    between atoms: _373  and  _375
REMARK  146  A    between atoms: _375  and  _376
REMARK  147  A    between atoms: _375  and  _378
REMARK  148  A    between atoms: _378  and  _379
REMARK                            x       y       z     vdW  Elec       q    Type
REMARK                         _______ _______ _______ _____ _____    ______ ____
ROOT
ATOM      1  NE  ARG A   1      79.532  56.148  24.299  0.00  0.00    -0.265 N 
ATOM      2  CZ  ARG A   1      79.606  55.842  25.587  0.00  0.00    +0.342 C 
ATOM      3  NH2 ARG A   1      79.643  56.797  26.517  0.00  0.00    -0.292 N 
ATOM      4 HH21 ARG A   1      79.701  56.541  27.523  0.00  0.00    +0.255 HD
ATOM      5 HH22 ARG A   1      79.614  57.798  26.236  0.00  0.00    +0.255 HD
ATOM      6  NH1 ARG A   1      79.640  54.567  25.948  0.00  0.00    -0.292 N 
ATOM      7 HH11 ARG A   1      79.698  54.313  26.955  0.00  0.00    +0.255 HD
ATOM      8 HH12 ARG A   1      79.609  53.821  25.224  0.00  0.00    +0.255 HD
ATOM      9  HE  ARG A   1      79.491  55.360  23.622  0.00  0.00    +0.259 HD
ENDROOT
BRANCH   1  10
ATOM     10  CD  ARG A   1      79.503  57.508  23.754  0.00  0.00    +0.174 C 
BRANCH  10  11
ATOM     11  CG  ARG A   1      80.699  57.732  22.828  0.00  0.00    +0.045 C 
BRANCH  11  12
ATOM     12  CB  ARG A   1      82.058  57.570  23.503  0.00  0.00    +0.029 C 
BRANCH  12  13
ATOM     13  CA  ARG A   1      82.274  58.511  24.708  0.00  0.00    +0.133 C 
BRANCH  13  14
ATOM     14  N   ARG A   1      81.676  59.849  24.491  0.00  0.00    -0.239 NA
ATOM     15  H   ARG A   1      80.849  60.103  25.068  0.00  0.00    +0.142 HD
ENDBRANCH  13  14
BRANCH  13  16
ATOM     16  C   ARG A   1      83.735  58.582  25.112  0.00  0.00    +0.224 C 
ATOM     17  O   ARG A   1      84.641  58.291  24.322  0.00  0.00    -0.287 OA
ENDBRANCH  13  16
ENDBRANCH  12  13
ENDBRANCH  11  12
ENDBRANCH  10  11
ENDBRANCH   1  10
TORSDOF 6
REMARK  Name = ../refined-set-2016/1toi/1toi_pocket.pdb
REMARK  148 active torsions:
REMARK  status: ('A' for Active; 'I' for Inactive)
REMARK    1  A    between atoms: _1  and  _3
REMARK    2  A    between atoms: _3  and  _4
REMARK    3  A    between atoms: _3  and  _6
REMARK    4  A    between atoms: _6  and  _7
REMARK    5  A    between atoms: _10  and  _12
REMARK    6  A    between atoms: _12  and  _13
REMARK    7  A    between atoms: _12  and  _15
REMARK    8  A    between atoms: _15  and  _16
REMARK    9  A    between atoms: _19  and  _21
REMARK   10  A    between atoms: _21  and  _22
REMARK   11  A    between atoms: _21  and  _24
REMARK   12  A    between atoms: _24  and  _25
REMARK   13  A    between atoms: _28  and  _30
REMARK   14  A    between atoms: _30  and  _31
REMARK   15  A    between atoms: _33  and  _35
REMARK   16  A    between atoms: _35  and  _36
REMARK   17  A    between atoms: _35  and  _38
REMARK   18  A    between atoms: _38  and  _39
REMARK   19  A    between atoms: _42  and  _44
REMARK   20  A    between atoms: _44  and  _45
REMARK   21  A    between atoms: _44  and  _47
REMARK   22  A    between atoms: _47  and  _48
REMARK   23  A    between atoms: _51  and  _53
REMARK   24  A    between atoms: _53  and  _54
REMARK   25  A    between atoms: _56  and  _58
REMARK   26  A    between atoms: _58  and  _59
REMARK   27  A    between atoms: _58  and  _61
REMARK   28  A    between atoms: _61  and  _62
REMARK   29  A    between atoms: _65  and  _67
REMARK   30  A    between atoms: _67  and  _68
REMARK   31  A    between atoms: _70  and  _72
REMARK   32  A    between atoms: _72  and  _73
REMARK   33  A    between atoms: _72  and  _75
REMARK   34  A    between atoms: _75  and  _76
REMARK   35  A    between atoms: _79  and  _81
REMARK   36  A    between atoms: _81  and  _82
REMARK   37  A    between atoms: _84  and  _86
REMARK   38  A    between atoms: _86  and  _87
REMARK   39  A    between atoms: _86  and  _89
REMARK   40  A    between atoms: _89  and  _90
REMARK   41  A    between atoms: _92  and  _94
REMARK   42  A    between atoms: _94  and  _95
REMARK   43  A    between atoms: _97  and  _99
REMARK   44  A    between atoms: _99  and  _100
REMARK   45  A    between atoms: _99  and  _102
REMARK   46  A    between atoms: _102  and  _103
REMARK   47  A    between atoms: _106  and  _108
REMARK   48  A    between atoms: _108  and  _109
REMARK   49  A    between atoms: _108  and  _111
REMARK   50  A    between atoms: _111  and  _112
REMARK   51  A    between atoms: _123  and  _124
REMARK   52  A    between atoms: _129  and  _131
REMARK   53  A    between atoms: _131  and  _132
REMARK   54  A    between atoms: _131  and  _134
REMARK   55  A    between atoms: _134  and  _135
REMARK   56  A    between atoms: _140  and  _142
REMARK   57  A    between atoms: _142  and  _143
REMARK   58  A    between atoms: _142  and  _145
REMARK   59  A    between atoms: _145  and  _146
REMARK   60  A    between atoms: _151  and  _153
REMARK   61  A    between atoms: _153  and  _154
REMARK   62  A    between atoms: _153  and  _156
REMARK   63  A    between atoms: _156  and  _157
REMARK   64  A    between atoms: _163  and  _164
REMARK   65  A    between atoms: _169  and  _171
REMARK   66  A    between atoms: _171  and  _172
REMARK   67  A    between atoms: _175  and  _177
REMARK   68  A    between atoms: _177  and  _178
REMARK   69  A    between atoms: _177  and  _180
REMARK   70  A    between atoms: _180  and  _181
REMARK   71  A    between atoms: _186  and  _187
REMARK   72  A    between atoms: _189  and  _191
REMARK   73  A    between atoms: _191  and  _192
REMARK   74  A    between atoms: _191  and  _194
REMARK   75  A    between atoms: _194  and  _195
REMARK   76  A    between atoms: _197  and  _199
REMARK   77  A    between atoms: _199  and  _200
REMARK   78  A    between atoms: _199  and  _202
REMARK   79  A    between atoms: _202  and  _203
REMARK   80  A    between atoms: _210  and  _211
REMARK   81  A    between atoms: _211  and  _227
REMARK   82  A    between atoms: _212  and  _214
REMARK   83  A    between atoms: _214  and  _215
REMARK   84  A    between atoms: _215  and  _216
REMARK   85  A    between atoms: _220  and  _222
REMARK   86  A    between atoms: _222  and  _223
REMARK   87  A    between atoms: _222  and  _230
REMARK   88  A    between atoms: _223  and  _224
REMARK   89  A    between atoms: _224  and  _225
REMARK   90  A    between atoms: _225  and  _226
REMARK   91  A    between atoms: _226  and  _227
REMARK   92  A    between atoms: _232  and  _234
REMARK   93  A    between atoms: _234  and  _235
REMARK   94  A    between atoms: _234  and  _237
REMARK   95  A    between atoms: _237  and  _238
REMARK   96  A    between atoms: _243  and  _244
REMARK   97  A    between atoms: _246  and  _248
REMARK   98  A    between atoms: _248  and  _249
REMARK   99  A    between atoms: _248  and  _251
REMARK  100  A    between atoms: _251  and  _252
REMARK  101  A    between atoms: _252  and  _253
REMARK  102  A    between atoms: _253  and  _254
REMARK  103  A    between atoms: _263  and  _265
REMARK  104  A    between atoms: _265  and  _266
REMARK  105  A    between atoms: _265  and  _268
REMARK  106  A    between atoms: _268  and  _269
REMARK  107  A    between atoms: _269  and  _270
REMARK  108  A    between atoms: _272  and  _274
REMARK  109  A    between atoms: _274  and  _275
REMARK  110  A    between atoms: _274  and  _277
REMARK  111  A    between atoms: _277  and  _278
REMARK  112  A    between atoms: _284  and  _286
REMARK  113  A    between atoms: _286  and  _287
REMARK  114  A    between atoms: _286  and  _289
REMARK  115  A    between atoms: _292  and  _294
REMARK  116  A    between atoms: _294  and  _295
REMARK  117  A    between atoms: _294  and  _297
REMARK  118  A    between atoms: _297  and  _298
REMARK  119  A    between atoms: _298  and  _299
REMARK  120  A    between atoms: _299  and  _300
REMARK  121  A    between atoms: _309  and  _311
REMARK  122  A    between atoms: _311  and  _312
REMARK  123  A    between atoms: _311  and  _314
REMARK  124  A    between atoms: _314  and  _315
REMARK  125  A    between atoms: _320  and  _322
REMARK  126  A    between atoms: _322  and  _323
REMARK  127  A    between atoms: _322  and  _325
REMARK  128  A    between atoms: _325  and  _326
REMARK  129  A    between atoms: _331  and  _332
REMARK  130  A    between atoms: _334  and  _336
REMARK  131  A    between atoms: _336  and  _337
REMARK  132  A    between atoms: _336  and  _339
REMARK  133  A    between atoms: _339  and  _340
REMARK  134  A    between atoms: _340  and  _341
REMARK  135  A    between atoms: _341  and  _342
REMARK  136  A    between atoms: _351  and  _353
REMARK  137  A    between atoms: _353  and  _354
REMARK  138  A    between atoms: _353  and  _356
REMARK  139  A    between atoms: _356  and  _357
REMARK  140  A    between atoms: _362  and  _363
REMARK  141  A    between atoms: _365  and  _367
REMARK  142  A    between atoms: _367  and  _368
REMARK  143  A    between atoms: _367  and  _370
REMARK  144  A    between atoms: _370  and  _371
REMARK  145  A    between atoms: _373  and  _375
REMARK  146  A    between atoms: _375  and  _376
REMARK  147  A    between atoms: _375  and  _378
REMARK  148  A    between atoms: _378  and  _379
REMARK                            x       y       z     vdW  Elec       q    Type
REMARK                         _______ _______ _______ _____ _____    ______ ____
ROOT
ATOM      1  C   MET A   1      72.221  58.436  42.129  0.00  0.00    +0.238 C 
ATOM      2  N   PHE A   2      72.280  57.209  42.633  0.00  0.00    -0.298 N 
ATOM      3  H   PHE A   2      73.185  56.839  42.989  0.00  0.00    +0.150 HD
ATOM      4  O   MET A   1      71.154  59.032  41.934  0.00  0.00    -0.274 OA
ENDROOT
BRANCH   1   5
ATOM      5  CA  MET A   1      73.553  59.096  41.786  0.00  0.00    +0.146 C 
BRANCH   5   6
ATOM      6  N   MET A   1      74.707  58.415  42.382  0.00  0.00    -0.238 NA
ATOM      7  H   MET A   1      75.177  57.652  41.855  0.00  0.00    +0.142 HD
ENDBRANCH   5   6
BRANCH   5   8
ATOM      8  CB  MET A   1      73.701  59.135  40.263  0.00  0.00    +0.038 C 
BRANCH   8   9
ATOM      9  CG  MET A   1      74.843  59.993  39.767  0.00  0.00    +0.060 C 
BRANCH   9  10
ATOM     10  SD  MET A   1      74.533  60.475  38.059  0.00  0.00    -0.139 S 
ATOM     11  CE  MET A   1      76.078  61.255  37.636  0.00  0.00    +0.069 C 
ENDBRANCH   9  10
ENDBRANCH   8   9
ENDBRANCH   5   8
ENDBRANCH   1   5
BRANCH   2  12
ATOM     12  CA  PHE A   2      71.091  56.382  42.690  0.00  0.00    +0.141 C 
BRANCH  12  13
ATOM     13  C   PHE A   2      70.636  56.123  44.106  0.00  0.00    +0.227 C 
ATOM     14  O   PHE A   2      71.399  56.267  45.079  0.00  0.00    -0.286 OA
ENDBRANCH  12  13
BRANCH  12  15
ATOM     15  CB  PHE A   2      71.309  55.037  41.986  0.00  0.00    +0.054 C 
BRANCH  15  16
ATOM     16  CG  PHE A   2      71.733  55.149  40.548  0.00  0.00    -0.020 A 
ATOM     17  CD2 PHE A   2      73.008  54.755  40.166  0.00  0.00    -0.004 A 
ATOM     18  CE2 PHE A   2      73.426  54.826  38.842  0.00  0.00    -0.000 A 
ATOM     19  CZ  PHE A   2      72.544  55.295  37.872  0.00  0.00    -0.000 A 
ATOM     20  CE1 PHE A   2      71.252  55.679  38.235  0.00  0.00    -0.000 A 
ATOM     21  CD1 PHE A   2      70.846  55.598  39.570  0.00  0.00    -0.004 A 
ENDBRANCH  15  16
ENDBRANCH  12  15
ENDBRANCH   2  12
TORSDOF 9
REMARK  Name = ../refined-set-2016/1toi/1toi_pocket.pdb
REMARK  148 active torsions:
REMARK  status: ('A' for Active; 'I' for Inactive)
REMARK    1  A    between atoms: _1  and  _3
REMARK    2  A    between atoms: _3  and  _4
REMARK    3  A    between atoms: _3  and  _6
REMARK    4  A    between atoms: _6  and  _7
REMARK    5  A    between atoms: _10  and  _12
REMARK    6  A    between atoms: _12  and  _13
REMARK    7  A    between atoms: _12  and  _15
REMARK    8  A    between atoms: _15  and  _16
REMARK    9  A    between atoms: _19  and  _21
REMARK   10  A    between atoms: _21  and  _22
REMARK   11  A    between atoms: _21  and  _24
REMARK   12  A    between atoms: _24  and  _25
REMARK   13  A    between atoms: _28  and  _30
REMARK   14  A    between atoms: _30  and  _31
REMARK   15  A    between atoms: _33  and  _35
REMARK   16  A    between atoms: _35  and  _36
REMARK   17  A    between atoms: _35  and  _38
REMARK   18  A    between atoms: _38  and  _39
REMARK   19  A    between atoms: _42  and  _44
REMARK   20  A    between atoms: _44  and  _45
REMARK   21  A    between atoms: _44  and  _47
REMARK   22  A    between atoms: _47  and  _48
REMARK   23  A    between atoms: _51  and  _53
REMARK   24  A    between atoms: _53  and  _54
REMARK   25  A    between atoms: _56  and  _58
REMARK   26  A    between atoms: _58  and  _59
REMARK   27  A    between atoms: _58  and  _61
REMARK   28  A    between atoms: _61  and  _62
REMARK   29  A    between atoms: _65  and  _67
REMARK   30  A    between atoms: _67  and  _68
REMARK   31  A    between atoms: _70  and  _72
REMARK   32  A    between atoms: _72  and  _73
REMARK   33  A    between atoms: _72  and  _75
REMARK   34  A    between atoms: _75  and  _76
REMARK   35  A    between atoms: _79  and  _81
REMARK   36  A    between atoms: _81  and  _82
REMARK   37  A    between atoms: _84  and  _86
REMARK   38  A    between atoms: _86  and  _87
REMARK   39  A    between atoms: _86  and  _89
REMARK   40  A    between atoms: _89  and  _90
REMARK   41  A    between atoms: _92  and  _94
REMARK   42  A    between atoms: _94  and  _95
REMARK   43  A    between atoms: _97  and  _99
REMARK   44  A    between atoms: _99  and  _100
REMARK   45  A    between atoms: _99  and  _102
REMARK   46  A    between atoms: _102  and  _103
REMARK   47  A    between atoms: _106  and  _108
REMARK   48  A    between atoms: _108  and  _109
REMARK   49  A    between atoms: _108  and  _111
REMARK   50  A    between atoms: _111  and  _112
REMARK   51  A    between atoms: _123  and  _124
REMARK   52  A    between atoms: _129  and  _131
REMARK   53  A    between atoms: _131  and  _132
REMARK   54  A    between atoms: _131  and  _134
REMARK   55  A    between atoms: _134  and  _135
REMARK   56  A    between atoms: _140  and  _142
REMARK   57  A    between atoms: _142  and  _143
REMARK   58  A    between atoms: _142  and  _145
REMARK   59  A    between atoms: _145  and  _146
REMARK   60  A    between atoms: _151  and  _153
REMARK   61  A    between atoms: _153  and  _154
REMARK   62  A    between atoms: _153  and  _156
REMARK   63  A    between atoms: _156  and  _157
REMARK   64  A    between atoms: _163  and  _164
REMARK   65  A    between atoms: _169  and  _171
REMARK   66  A    between atoms: _171  and  _172
REMARK   67  A    between atoms: _175  and  _177
REMARK   68  A    between atoms: _177  and  _178
REMARK   69  A    between atoms: _177  and  _180
REMARK   70  A    between atoms: _180  and  _181
REMARK   71  A    between atoms: _186  and  _187
REMARK   72  A    between atoms: _189  and  _191
REMARK   73  A    between atoms: _191  and  _192
REMARK   74  A    between atoms: _191  and  _194
REMARK   75  A    between atoms: _194  and  _195
REMARK   76  A    between atoms: _197  and  _199
REMARK   77  A    between atoms: _199  and  _200
REMARK   78  A    between atoms: _199  and  _202
REMARK   79  A    between atoms: _202  and  _203
REMARK   80  A    between atoms: _210  and  _211
REMARK   81  A    between atoms: _211  and  _227
REMARK   82  A    between atoms: _212  and  _214
REMARK   83  A    between atoms: _214  and  _215
REMARK   84  A    between atoms: _215  and  _216
REMARK   85  A    between atoms: _220  and  _222
REMARK   86  A    between atoms: _222  and  _223
REMARK   87  A    between atoms: _222  and  _230
REMARK   88  A    between atoms: _223  and  _224
REMARK   89  A    between atoms: _224  and  _225
REMARK   90  A    between atoms: _225  and  _226
REMARK   91  A    between atoms: _226  and  _227
REMARK   92  A    between atoms: _232  and  _234
REMARK   93  A    between atoms: _234  and  _235
REMARK   94  A    between atoms: _234  and  _237
REMARK   95  A    between atoms: _237  and  _238
REMARK   96  A    between atoms: _243  and  _244
REMARK   97  A    between atoms: _246  and  _248
REMARK   98  A    between atoms: _248  and  _249
REMARK   99  A    between atoms: _248  and  _251
REMARK  100  A    between atoms: _251  and  _252
REMARK  101  A    between atoms: _252  and  _253
REMARK  102  A    between atoms: _253  and  _254
REMARK  103  A    between atoms: _263  and  _265
REMARK  104  A    between atoms: _265  and  _266
REMARK  105  A    between atoms: _265  and  _268
REMARK  106  A    between atoms: _268  and  _269
REMARK  107  A    between atoms: _269  and  _270
REMARK  108  A    between atoms: _272  and  _274
REMARK  109  A    between atoms: _274  and  _275
REMARK  110  A    between atoms: _274  and  _277
REMARK  111  A    between atoms: _277  and  _278
REMARK  112  A    between atoms: _284  and  _286
REMARK  113  A    between atoms: _286  and  _287
REMARK  114  A    between atoms: _286  and  _289
REMARK  115  A    between atoms: _292  and  _294
REMARK  116  A    between atoms: _294  and  _295
REMARK  117  A    between atoms: _294  and  _297
REMARK  118  A    between atoms: _297  and  _298
REMARK  119  A    between atoms: _298  and  _299
REMARK  120  A    between atoms: _299  and  _300
REMARK  121  A    between atoms: _309  and  _311
REMARK  122  A    between atoms: _311  and  _312
REMARK  123  A    between atoms: _311  and  _314
REMARK  124  A    between atoms: _314  and  _315
REMARK  125  A    between atoms: _320  and  _322
REMARK  126  A    between atoms: _322  and  _323
REMARK  127  A    between atoms: _322  and  _325
REMARK  128  A    between atoms: _325  and  _326
REMARK  129  A    between atoms: _331  and  _332
REMARK  130  A    between atoms: _334  and  _336
REMARK  131  A    between atoms: _336  and  _337
REMARK  132  A    between atoms: _336  and  _339
REMARK  133  A    between atoms: _339  and  _340
REMARK  134  A    between atoms: _340  and  _341
REMARK  135  A    between atoms: _341  and  _342
REMARK  136  A    between atoms: _351  and  _353
REMARK  137  A    between atoms: _353  and  _354
REMARK  138  A    between atoms: _353  and  _356
REMARK  139  A    between atoms: _356  and  _357
REMARK  140  A    between atoms: _362  and  _363
REMARK  141  A    between atoms: _365  and  _367
REMARK  142  A    between atoms: _367  and  _368
REMARK  143  A    between atoms: _367  and  _370
REMARK  144  A    between atoms: _370  and  _371
REMARK  145  A    between atoms: _373  and  _375
REMARK  146  A    between atoms: _375  and  _376
REMARK  147  A    between atoms: _375  and  _378
REMARK  148  A    between atoms: _378  and  _379
REMARK                            x       y       z     vdW  Elec       q    Type
REMARK                         _______ _______ _______ _____ _____    ______ ____
ROOT
ATOM      1  CA  VAL A   1      64.645  50.874  36.513  0.00  0.00    +0.133 C 
ENDROOT
BRANCH   1   2
ATOM      2  CB  VAL A   1      66.190  50.703  36.617  0.00  0.00    +0.023 C 
ATOM      3  CG2 VAL A   1      66.651  49.353  36.025  0.00  0.00    +0.002 C 
ATOM      4  CG1 VAL A   1      66.888  51.840  35.891  0.00  0.00    +0.002 C 
ENDBRANCH   1   2
BRANCH   1   5
ATOM      5  N   VAL A   1      64.223  52.191  37.009  0.00  0.00    -0.239 NA
ATOM      6  H   VAL A   1      64.795  52.667  37.735  0.00  0.00    +0.142 HD
ENDBRANCH   1   5
BRANCH   1   7
ATOM      7  C   VAL A   1      63.899  49.765  37.285  0.00  0.00    +0.224 C 
ATOM      8  O   VAL A   1      63.635  49.901  38.487  0.00  0.00    -0.287 OA
ENDBRANCH   1   7
TORSDOF 3
REMARK  Name = ../refined-set-2016/1toi/1toi_pocket.pdb
REMARK  148 active torsions:
REMARK  status: ('A' for Active; 'I' for Inactive)
REMARK    1  A    between atoms: _1  and  _3
REMARK    2  A    between atoms: _3  and  _4
REMARK    3  A    between atoms: _3  and  _6
REMARK    4  A    between atoms: _6  and  _7
REMARK    5  A    between atoms: _10  and  _12
REMARK    6  A    between atoms: _12  and  _13
REMARK    7  A    between atoms: _12  and  _15
REMARK    8  A    between atoms: _15  and  _16
REMARK    9  A    between atoms: _19  and  _21
REMARK   10  A    between atoms: _21  and  _22
REMARK   11  A    between atoms: _21  and  _24
REMARK   12  A    between atoms: _24  and  _25
REMARK   13  A    between atoms: _28  and  _30
REMARK   14  A    between atoms: _30  and  _31
REMARK   15  A    between atoms: _33  and  _35
REMARK   16  A    between atoms: _35  and  _36
REMARK   17  A    between atoms: _35  and  _38
REMARK   18  A    between atoms: _38  and  _39
REMARK   19  A    between atoms: _42  and  _44
REMARK   20  A    between atoms: _44  and  _45
REMARK   21  A    between atoms: _44  and  _47
REMARK   22  A    between atoms: _47  and  _48
REMARK   23  A    between atoms: _51  and  _53
REMARK   24  A    between atoms: _53  and  _54
REMARK   25  A    between atoms: _56  and  _58
REMARK   26  A    between atoms: _58  and  _59
REMARK   27  A    between atoms: _58  and  _61
REMARK   28  A    between atoms: _61  and  _62
REMARK   29  A    between atoms: _65  and  _67
REMARK   30  A    between atoms: _67  and  _68
REMARK   31  A    between atoms: _70  and  _72
REMARK   32  A    between atoms: _72  and  _73
REMARK   33  A    between atoms: _72  and  _75
REMARK   34  A    between atoms: _75  and  _76
REMARK   35  A    between atoms: _79  and  _81
REMARK   36  A    between atoms: _81  and  _82
REMARK   37  A    between atoms: _84  and  _86
REMARK   38  A    between atoms: _86  and  _87
REMARK   39  A    between atoms: _86  and  _89
REMARK   40  A    between atoms: _89  and  _90
REMARK   41  A    between atoms: _92  and  _94
REMARK   42  A    between atoms: _94  and  _95
REMARK   43  A    between atoms: _97  and  _99
REMARK   44  A    between atoms: _99  and  _100
REMARK   45  A    between atoms: _99  and  _102
REMARK   46  A    between atoms: _102  and  _103
REMARK   47  A    between atoms: _106  and  _108
REMARK   48  A    between atoms: _108  and  _109
REMARK   49  A    between atoms: _108  and  _111
REMARK   50  A    between atoms: _111  and  _112
REMARK   51  A    between atoms: _123  and  _124
REMARK   52  A    between atoms: _129  and  _131
REMARK   53  A    between atoms: _131  and  _132
REMARK   54  A    between atoms: _131  and  _134
REMARK   55  A    between atoms: _134  and  _135
REMARK   56  A    between atoms: _140  and  _142
REMARK   57  A    between atoms: _142  and  _143
REMARK   58  A    between atoms: _142  and  _145
REMARK   59  A    between atoms: _145  and  _146
REMARK   60  A    between atoms: _151  and  _153
REMARK   61  A    between atoms: _153  and  _154
REMARK   62  A    between atoms: _153  and  _156
REMARK   63  A    between atoms: _156  and  _157
REMARK   64  A    between atoms: _163  and  _164
REMARK   65  A    between atoms: _169  and  _171
REMARK   66  A    between atoms: _171  and  _172
REMARK   67  A    between atoms: _175  and  _177
REMARK   68  A    between atoms: _177  and  _178
REMARK   69  A    between atoms: _177  and  _180
REMARK   70  A    between atoms: _180  and  _181
REMARK   71  A    between atoms: _186  and  _187
REMARK   72  A    between atoms: _189  and  _191
REMARK   73  A    between atoms: _191  and  _192
REMARK   74  A    between atoms: _191  and  _194
REMARK   75  A    between atoms: _194  and  _195
REMARK   76  A    between atoms: _197  and  _199
REMARK   77  A    between atoms: _199  and  _200
REMARK   78  A    between atoms: _199  and  _202
REMARK   79  A    between atoms: _202  and  _203
REMARK   80  A    between atoms: _210  and  _211
REMARK   81  A    between atoms: _211  and  _227
REMARK   82  A    between atoms: _212  and  _214
REMARK   83  A    between atoms: _214  and  _215
REMARK   84  A    between atoms: _215  and  _216
REMARK   85  A    between atoms: _220  and  _222
REMARK   86  A    between atoms: _222  and  _223
REMARK   87  A    between atoms: _222  and  _230
REMARK   88  A    between atoms: _223  and  _224
REMARK   89  A    between atoms: _224  and  _225
REMARK   90  A    between atoms: _225  and  _226
REMARK   91  A    between atoms: _226  and  _227
REMARK   92  A    between atoms: _232  and  _234
REMARK   93  A    between atoms: _234  and  _235
REMARK   94  A    between atoms: _234  and  _237
REMARK   95  A    between atoms: _237  and  _238
REMARK   96  A    between atoms: _243  and  _244
REMARK   97  A    between atoms: _246  and  _248
REMARK   98  A    between atoms: _248  and  _249
REMARK   99  A    between atoms: _248  and  _251
REMARK  100  A    between atoms: _251  and  _252
REMARK  101  A    between atoms: _252  and  _253
REMARK  102  A    between atoms: _253  and  _254
REMARK  103  A    between atoms: _263  and  _265
REMARK  104  A    between atoms: _265  and  _266
REMARK  105  A    between atoms: _265  and  _268
REMARK  106  A    between atoms: _268  and  _269
REMARK  107  A    between atoms: _269  and  _270
REMARK  108  A    between atoms: _272  and  _274
REMARK  109  A    between atoms: _274  and  _275
REMARK  110  A    between atoms: _274  and  _277
REMARK  111  A    between atoms: _277  and  _278
REMARK  112  A    between atoms: _284  and  _286
REMARK  113  A    between atoms: _286  and  _287
REMARK  114  A    between atoms: _286  and  _289
REMARK  115  A    between atoms: _292  and  _294
REMARK  116  A    between atoms: _294  and  _295
REMARK  117  A    between atoms: _294  and  _297
REMARK  118  A    between atoms: _297  and  _298
REMARK  119  A    between atoms: _298  and  _299
REMARK  120  A    between atoms: _299  and  _300
REMARK  121  A    between atoms: _309  and  _311
REMARK  122  A    between atoms: _311  and  _312
REMARK  123  A    between atoms: _311  and  _314
REMARK  124  A    between atoms: _314  and  _315
REMARK  125  A    between atoms: _320  and  _322
REMARK  126  A    between atoms: _322  and  _323
REMARK  127  A    between atoms: _322  and  _325
REMARK  128  A    between atoms: _325  and  _326
REMARK  129  A    between atoms: _331  and  _332
REMARK  130  A    between atoms: _334  and  _336
REMARK  131  A    between atoms: _336  and  _337
REMARK  132  A    between atoms: _336  and  _339
REMARK  133  A    between atoms: _339  and  _340
REMARK  134  A    between atoms: _340  and  _341
REMARK  135  A    between atoms: _341  and  _342
REMARK  136  A    between atoms: _351  and  _353
REMARK  137  A    between atoms: _353  and  _354
REMARK  138  A    between atoms: _353  and  _356
REMARK  139  A    between atoms: _356  and  _357
REMARK  140  A    between atoms: _362  and  _363
REMARK  141  A    between atoms: _365  and  _367
REMARK  142  A    between atoms: _367  and  _368
REMARK  143  A    between atoms: _367  and  _370
REMARK  144  A    between atoms: _370  and  _371
REMARK  145  A    between atoms: _373  and  _375
REMARK  146  A    between atoms: _375  and  _376
REMARK  147  A    between atoms: _375  and  _378
REMARK  148  A    between atoms: _378  and  _379
REMARK                            x       y       z     vdW  Elec       q    Type
REMARK                         _______ _______ _______ _____ _____    ______ ____
ROOT
ATOM      1  NE  ARG A   1      69.887  52.679  37.957  0.00  0.00    -0.265 N 
ATOM      2  HE  ARG A   1      68.985  53.196  37.998  0.00  0.00    +0.259 HD
ATOM      3  CZ  ARG A   1      70.563  52.683  36.808  0.00  0.00    +0.342 C 
ATOM      4  NH2 ARG A   1      71.689  51.988  36.697  0.00  0.00    -0.292 N 
ATOM      5 HH21 ARG A   1      72.044  51.440  37.507  0.00  0.00    +0.255 HD
ATOM      6 HH22 ARG A   1      72.216  51.991  35.800  0.00  0.00    +0.255 HD
ATOM      7  NH1 ARG A   1      70.107  53.368  35.767  0.00  0.00    -0.292 N 
ATOM      8 HH11 ARG A   1      69.219  53.904  35.846  0.00  0.00    +0.255 HD
ATOM      9 HH12 ARG A   1      70.637  53.369  34.872  0.00  0.00    +0.255 HD
ENDROOT
BRANCH   1  10
ATOM     10  CD  ARG A   1      70.344  51.987  39.165  0.00  0.00    +0.174 C 
BRANCH  10  11
ATOM     11  CG  ARG A   1      69.384  52.194  40.327  0.00  0.00    +0.045 C 
BRANCH  11  12
ATOM     12  CB  ARG A   1      68.155  51.283  40.202  0.00  0.00    +0.029 C 
BRANCH  12  13
ATOM     13  CA  ARG A   1      66.989  51.685  41.100  0.00  0.00    +0.133 C 
BRANCH  13  14
ATOM     14  N   ARG A   1      65.986  50.630  41.105  0.00  0.00    -0.239 NA
ATOM     15  H   ARG A   1      66.031  49.882  40.384  0.00  0.00    +0.142 HD
ENDBRANCH  13  14
BRANCH  13  16
ATOM     16  C   ARG A   1      66.378  52.996  40.603  0.00  0.00    +0.224 C 
ATOM     17  O   ARG A   1      65.823  53.059  39.501  0.00  0.00    -0.287 OA
ENDBRANCH  13  16
ENDBRANCH  12  13
ENDBRANCH  11  12
ENDBRANCH  10  11
ENDBRANCH   1  10
TORSDOF 6
REMARK  Name = ../refined-set-2016/1toi/1toi_pocket.pdb
REMARK  148 active torsions:
REMARK  status: ('A' for Active; 'I' for Inactive)
REMARK    1  A    between atoms: _1  and  _3
REMARK    2  A    between atoms: _3  and  _4
REMARK    3  A    between atoms: _3  and  _6
REMARK    4  A    between atoms: _6  and  _7
REMARK    5  A    between atoms: _10  and  _12
REMARK    6  A    between atoms: _12  and  _13
REMARK    7  A    between atoms: _12  and  _15
REMARK    8  A    between atoms: _15  and  _16
REMARK    9  A    between atoms: _19  and  _21
REMARK   10  A    between atoms: _21  and  _22
REMARK   11  A    between atoms: _21  and  _24
REMARK   12  A    between atoms: _24  and  _25
REMARK   13  A    between atoms: _28  and  _30
REMARK   14  A    between atoms: _30  and  _31
REMARK   15  A    between atoms: _33  and  _35
REMARK   16  A    between atoms: _35  and  _36
REMARK   17  A    between atoms: _35  and  _38
REMARK   18  A    between atoms: _38  and  _39
REMARK   19  A    between atoms: _42  and  _44
REMARK   20  A    between atoms: _44  and  _45
REMARK   21  A    between atoms: _44  and  _47
REMARK   22  A    between atoms: _47  and  _48
REMARK   23  A    between atoms: _51  and  _53
REMARK   24  A    between atoms: _53  and  _54
REMARK   25  A    between atoms: _56  and  _58
REMARK   26  A    between atoms: _58  and  _59
REMARK   27  A    between atoms: _58  and  _61
REMARK   28  A    between atoms: _61  and  _62
REMARK   29  A    between atoms: _65  and  _67
REMARK   30  A    between atoms: _67  and  _68
REMARK   31  A    between atoms: _70  and  _72
REMARK   32  A    between atoms: _72  and  _73
REMARK   33  A    between atoms: _72  and  _75
REMARK   34  A    between atoms: _75  and  _76
REMARK   35  A    between atoms: _79  and  _81
REMARK   36  A    between atoms: _81  and  _82
REMARK   37  A    between atoms: _84  and  _86
REMARK   38  A    between atoms: _86  and  _87
REMARK   39  A    between atoms: _86  and  _89
REMARK   40  A    between atoms: _89  and  _90
REMARK   41  A    between atoms: _92  and  _94
REMARK   42  A    between atoms: _94  and  _95
REMARK   43  A    between atoms: _97  and  _99
REMARK   44  A    between atoms: _99  and  _100
REMARK   45  A    between atoms: _99  and  _102
REMARK   46  A    between atoms: _102  and  _103
REMARK   47  A    between atoms: _106  and  _108
REMARK   48  A    between atoms: _108  and  _109
REMARK   49  A    between atoms: _108  and  _111
REMARK   50  A    between atoms: _111  and  _112
REMARK   51  A    between atoms: _123  and  _124
REMARK   52  A    between atoms: _129  and  _131
REMARK   53  A    between atoms: _131  and  _132
REMARK   54  A    between atoms: _131  and  _134
REMARK   55  A    between atoms: _134  and  _135
REMARK   56  A    between atoms: _140  and  _142
REMARK   57  A    between atoms: _142  and  _143
REMARK   58  A    between atoms: _142  and  _145
REMARK   59  A    between atoms: _145  and  _146
REMARK   60  A    between atoms: _151  and  _153
REMARK   61  A    between atoms: _153  and  _154
REMARK   62  A    between atoms: _153  and  _156
REMARK   63  A    between atoms: _156  and  _157
REMARK   64  A    between atoms: _163  and  _164
REMARK   65  A    between atoms: _169  and  _171
REMARK   66  A    between atoms: _171  and  _172
REMARK   67  A    between atoms: _175  and  _177
REMARK   68  A    between atoms: _177  and  _178
REMARK   69  A    between atoms: _177  and  _180
REMARK   70  A    between atoms: _180  and  _181
REMARK   71  A    between atoms: _186  and  _187
REMARK   72  A    between atoms: _189  and  _191
REMARK   73  A    between atoms: _191  and  _192
REMARK   74  A    between atoms: _191  and  _194
REMARK   75  A    between atoms: _194  and  _195
REMARK   76  A    between atoms: _197  and  _199
REMARK   77  A    between atoms: _199  and  _200
REMARK   78  A    between atoms: _199  and  _202
REMARK   79  A    between atoms: _202  and  _203
REMARK   80  A    between atoms: _210  and  _211
REMARK   81  A    between atoms: _211  and  _227
REMARK   82  A    between atoms: _212  and  _214
REMARK   83  A    between atoms: _214  and  _215
REMARK   84  A    between atoms: _215  and  _216
REMARK   85  A    between atoms: _220  and  _222
REMARK   86  A    between atoms: _222  and  _223
REMARK   87  A    between atoms: _222  and  _230
REMARK   88  A    between atoms: _223  and  _224
REMARK   89  A    between atoms: _224  and  _225
REMARK   90  A    between atoms: _225  and  _226
REMARK   91  A    between atoms: _226  and  _227
REMARK   92  A    between atoms: _232  and  _234
REMARK   93  A    between atoms: _234  and  _235
REMARK   94  A    between atoms: _234  and  _237
REMARK   95  A    between atoms: _237  and  _238
REMARK   96  A    between atoms: _243  and  _244
REMARK   97  A    between atoms: _246  and  _248
REMARK   98  A    between atoms: _248  and  _249
REMARK   99  A    between atoms: _248  and  _251
REMARK  100  A    between atoms: _251  and  _252
REMARK  101  A    between atoms: _252  and  _253
REMARK  102  A    between atoms: _253  and  _254
REMARK  103  A    between atoms: _263  and  _265
REMARK  104  A    between atoms: _265  and  _266
REMARK  105  A    between atoms: _265  and  _268
REMARK  106  A    between atoms: _268  and  _269
REMARK  107  A    between atoms: _269  and  _270
REMARK  108  A    between atoms: _272  and  _274
REMARK  109  A    between atoms: _274  and  _275
REMARK  110  A    between atoms: _274  and  _277
REMARK  111  A    between atoms: _277  and  _278
REMARK  112  A    between atoms: _284  and  _286
REMARK  113  A    between atoms: _286  and  _287
REMARK  114  A    between atoms: _286  and  _289
REMARK  115  A    between atoms: _292  and  _294
REMARK  116  A    between atoms: _294  and  _295
REMARK  117  A    between atoms: _294  and  _297
REMARK  118  A    between atoms: _297  and  _298
REMARK  119  A    between atoms: _298  and  _299
REMARK  120  A    between atoms: _299  and  _300
REMARK  121  A    between atoms: _309  and  _311
REMARK  122  A    between atoms: _311  and  _312
REMARK  123  A    between atoms: _311  and  _314
REMARK  124  A    between atoms: _314  and  _315
REMARK  125  A    between atoms: _320  and  _322
REMARK  126  A    between atoms: _322  and  _323
REMARK  127  A    between atoms: _322  and  _325
REMARK  128  A    between atoms: _325  and  _326
REMARK  129  A    between atoms: _331  and  _332
REMARK  130  A    between atoms: _334  and  _336
REMARK  131  A    between atoms: _336  and  _337
REMARK  132  A    between atoms: _336  and  _339
REMARK  133  A    between atoms: _339  and  _340
REMARK  134  A    between atoms: _340  and  _341
REMARK  135  A    between atoms: _341  and  _342
REMARK  136  A    between atoms: _351  and  _353
REMARK  137  A    between atoms: _353  and  _354
REMARK  138  A    between atoms: _353  and  _356
REMARK  139  A    between atoms: _356  and  _357
REMARK  140  A    between atoms: _362  and  _363
REMARK  141  A    between atoms: _365  and  _367
REMARK  142  A    between atoms: _367  and  _368
REMARK  143  A    between atoms: _367  and  _370
REMARK  144  A    between atoms: _370  and  _371
REMARK  145  A    between atoms: _373  and  _375
REMARK  146  A    between atoms: _375  and  _376
REMARK  147  A    between atoms: _375  and  _378
REMARK  148  A    between atoms: _378  and  _379
REMARK                            x       y       z     vdW  Elec       q    Type
REMARK                         _______ _______ _______ _____ _____    ______ ____
ROOT
ATOM      1  CB  ASN A   1      68.284  58.640  38.322  0.00  0.00    +0.110 C 
ENDROOT
BRANCH   1   2
ATOM      2  CG  ASN A   1      69.436  59.601  38.056  0.00  0.00    +0.221 C 
ATOM      3  ND2 ASN A   1      70.248  59.845  39.059  0.00  0.00    -0.329 N 
ATOM      4 HD21 ASN A   1      70.092  59.384  39.978  0.00  0.00    +0.145 HD
ATOM      5 HD22 ASN A   1      71.047  60.499  38.934  0.00  0.00    +0.145 HD
ATOM      6  OD1 ASN A   1      69.576  60.120  36.949  0.00  0.00    -0.275 OA
ENDBRANCH   1   2
BRANCH   1   7
ATOM      7  CA  ASN A   1      68.165  58.245  39.792  0.00  0.00    +0.142 C 
BRANCH   7   8
ATOM      8  N   ASN A   1      67.132  57.230  39.951  0.00  0.00    -0.239 NA
ATOM      9  H   ASN A   1      66.369  57.164  39.247  0.00  0.00    +0.142 HD
ENDBRANCH   7   8
BRANCH   7  10
ATOM     10  C   ASN A   1      67.839  59.478  40.647  0.00  0.00    +0.225 C 
ATOM     11  O   ASN A   1      67.033  60.329  40.253  0.00  0.00    -0.287 OA
ENDBRANCH   7  10
ENDBRANCH   1   7
TORSDOF 4
REMARK  Name = ../refined-set-2016/1toi/1toi_pocket.pdb
REMARK  148 active torsions:
REMARK  status: ('A' for Active; 'I' for Inactive)
REMARK    1  A    between atoms: _1  and  _3
REMARK    2  A    between atoms: _3  and  _4
REMARK    3  A    between atoms: _3  and  _6
REMARK    4  A    between atoms: _6  and  _7
REMARK    5  A    between atoms: _10  and  _12
REMARK    6  A    between atoms: _12  and  _13
REMARK    7  A    between atoms: _12  and  _15
REMARK    8  A    between atoms: _15  and  _16
REMARK    9  A    between atoms: _19  and  _21
REMARK   10  A    between atoms: _21  and  _22
REMARK   11  A    between atoms: _21  and  _24
REMARK   12  A    between atoms: _24  and  _25
REMARK   13  A    between atoms: _28  and  _30
REMARK   14  A    between atoms: _30  and  _31
REMARK   15  A    between atoms: _33  and  _35
REMARK   16  A    between atoms: _35  and  _36
REMARK   17  A    between atoms: _35  and  _38
REMARK   18  A    between atoms: _38  and  _39
REMARK   19  A    between atoms: _42  and  _44
REMARK   20  A    between atoms: _44  and  _45
REMARK   21  A    between atoms: _44  and  _47
REMARK   22  A    between atoms: _47  and  _48
REMARK   23  A    between atoms: _51  and  _53
REMARK   24  A    between atoms: _53  and  _54
REMARK   25  A    between atoms: _56  and  _58
REMARK   26  A    between atoms: _58  and  _59
REMARK   27  A    between atoms: _58  and  _61
REMARK   28  A    between atoms: _61  and  _62
REMARK   29  A    between atoms: _65  and  _67
REMARK   30  A    between atoms: _67  and  _68
REMARK   31  A    between atoms: _70  and  _72
REMARK   32  A    between atoms: _72  and  _73
REMARK   33  A    between atoms: _72  and  _75
REMARK   34  A    between atoms: _75  and  _76
REMARK   35  A    between atoms: _79  and  _81
REMARK   36  A    between atoms: _81  and  _82
REMARK   37  A    between atoms: _84  and  _86
REMARK   38  A    between atoms: _86  and  _87
REMARK   39  A    between atoms: _86  and  _89
REMARK   40  A    between atoms: _89  and  _90
REMARK   41  A    between atoms: _92  and  _94
REMARK   42  A    between atoms: _94  and  _95
REMARK   43  A    between atoms: _97  and  _99
REMARK   44  A    between atoms: _99  and  _100
REMARK   45  A    between atoms: _99  and  _102
REMARK   46  A    between atoms: _102  and  _103
REMARK   47  A    between atoms: _106  and  _108
REMARK   48  A    between atoms: _108  and  _109
REMARK   49  A    between atoms: _108  and  _111
REMARK   50  A    between atoms: _111  and  _112
REMARK   51  A    between atoms: _123  and  _124
REMARK   52  A    between atoms: _129  and  _131
REMARK   53  A    between atoms: _131  and  _132
REMARK   54  A    between atoms: _131  and  _134
REMARK   55  A    between atoms: _134  and  _135
REMARK   56  A    between atoms: _140  and  _142
REMARK   57  A    between atoms: _142  and  _143
REMARK   58  A    between atoms: _142  and  _145
REMARK   59  A    between atoms: _145  and  _146
REMARK   60  A    between atoms: _151  and  _153
REMARK   61  A    between atoms: _153  and  _154
REMARK   62  A    between atoms: _153  and  _156
REMARK   63  A    between atoms: _156  and  _157
REMARK   64  A    between atoms: _163  and  _164
REMARK   65  A    between atoms: _169  and  _171
REMARK   66  A    between atoms: _171  and  _172
REMARK   67  A    between atoms: _175  and  _177
REMARK   68  A    between atoms: _177  and  _178
REMARK   69  A    between atoms: _177  and  _180
REMARK   70  A    between atoms: _180  and  _181
REMARK   71  A    between atoms: _186  and  _187
REMARK   72  A    between atoms: _189  and  _191
REMARK   73  A    between atoms: _191  and  _192
REMARK   74  A    between atoms: _191  and  _194
REMARK   75  A    between atoms: _194  and  _195
REMARK   76  A    between atoms: _197  and  _199
REMARK   77  A    between atoms: _199  and  _200
REMARK   78  A    between atoms: _199  and  _202
REMARK   79  A    between atoms: _202  and  _203
REMARK   80  A    between atoms: _210  and  _211
REMARK   81  A    between atoms: _211  and  _227
REMARK   82  A    between atoms: _212  and  _214
REMARK   83  A    between atoms: _214  and  _215
REMARK   84  A    between atoms: _215  and  _216
REMARK   85  A    between atoms: _220  and  _222
REMARK   86  A    between atoms: _222  and  _223
REMARK   87  A    between atoms: _222  and  _230
REMARK   88  A    between atoms: _223  and  _224
REMARK   89  A    between atoms: _224  and  _225
REMARK   90  A    between atoms: _225  and  _226
REMARK   91  A    between atoms: _226  and  _227
REMARK   92  A    between atoms: _232  and  _234
REMARK   93  A    between atoms: _234  and  _235
REMARK   94  A    between atoms: _234  and  _237
REMARK   95  A    between atoms: _237  and  _238
REMARK   96  A    between atoms: _243  and  _244
REMARK   97  A    between atoms: _246  and  _248
REMARK   98  A    between atoms: _248  and  _249
REMARK   99  A    between atoms: _248  and  _251
REMARK  100  A    between atoms: _251  and  _252
REMARK  101  A    between atoms: _252  and  _253
REMARK  102  A    between atoms: _253  and  _254
REMARK  103  A    between atoms: _263  and  _265
REMARK  104  A    between atoms: _265  and  _266
REMARK  105  A    between atoms: _265  and  _268
REMARK  106  A    between atoms: _268  and  _269
REMARK  107  A    between atoms: _269  and  _270
REMARK  108  A    between atoms: _272  and  _274
REMARK  109  A    between atoms: _274  and  _275
REMARK  110  A    between atoms: _274  and  _277
REMARK  111  A    between atoms: _277  and  _278
REMARK  112  A    between atoms: _284  and  _286
REMARK  113  A    between atoms: _286  and  _287
REMARK  114  A    between atoms: _286  and  _289
REMARK  115  A    between atoms: _292  and  _294
REMARK  116  A    between atoms: _294  and  _295
REMARK  117  A    between atoms: _294  and  _297
REMARK  118  A    between atoms: _297  and  _298
REMARK  119  A    between atoms: _298  and  _299
REMARK  120  A    between atoms: _299  and  _300
REMARK  121  A    between atoms: _309  and  _311
REMARK  122  A    between atoms: _311  and  _312
REMARK  123  A    between atoms: _311  and  _314
REMARK  124  A    between atoms: _314  and  _315
REMARK  125  A    between atoms: _320  and  _322
REMARK  126  A    between atoms: _322  and  _323
REMARK  127  A    between atoms: _322  and  _325
REMARK  128  A    between atoms: _325  and  _326
REMARK  129  A    between atoms: _331  and  _332
REMARK  130  A    between atoms: _334  and  _336
REMARK  131  A    between atoms: _336  and  _337
REMARK  132  A    between atoms: _336  and  _339
REMARK  133  A    between atoms: _339  and  _340
REMARK  134  A    between atoms: _340  and  _341
REMARK  135  A    between atoms: _341  and  _342
REMARK  136  A    between atoms: _351  and  _353
REMARK  137  A    between atoms: _353  and  _354
REMARK  138  A    between atoms: _353  and  _356
REMARK  139  A    between atoms: _356  and  _357
REMARK  140  A    between atoms: _362  and  _363
REMARK  141  A    between atoms: _365  and  _367
REMARK  142  A    between atoms: _367  and  _368
REMARK  143  A    between atoms: _367  and  _370
REMARK  144  A    between atoms: _370  and  _371
REMARK  145  A    between atoms: _373  and  _375
REMARK  146  A    between atoms: _375  and  _376
REMARK  147  A    between atoms: _375  and  _378
REMARK  148  A    between atoms: _378  and  _379
REMARK                            x       y       z     vdW  Elec       q    Type
REMARK                         _______ _______ _______ _____ _____    ______ ____
ROOT
ATOM      1  CG  TYR A   1      74.334  58.191  27.325  0.00  0.00    -0.020 A 
ATOM      2  CD2 TYR A   1      73.968  58.233  28.671  0.00  0.00    -0.001 A 
ATOM      3  CE2 TYR A   1      74.863  57.836  29.680  0.00  0.00    +0.036 A 
ATOM      4  CZ  TYR A   1      76.138  57.404  29.334  0.00  0.00    +0.134 A 
ATOM      5  CE1 TYR A   1      76.512  57.319  28.005  0.00  0.00    +0.036 A 
ATOM      6  CD1 TYR A   1      75.613  57.729  27.000  0.00  0.00    -0.001 A 
ENDROOT
BRANCH   4   7
ATOM      7  OH  TYR A   1      77.021  57.025  30.325  0.00  0.00    -0.506 OA
ATOM      8  HH  TYR A   1      77.877  56.746  29.914  0.00  0.00    +0.292 HD
ENDBRANCH   4   7
BRANCH   1   9
ATOM      9  CB  TYR A   1      73.356  58.587  26.252  0.00  0.00    +0.051 C 
BRANCH   9  10
ATOM     10  CA  TYR A   1      73.639  59.932  25.558  0.00  0.00    +0.137 C 
BRANCH  10  11
ATOM     11  N   TYR A   1      73.351  61.073  26.471  0.00  0.00    -0.239 NA
ATOM     12  H   TYR A   1      73.239  60.885  27.488  0.00  0.00    +0.142 HD
ENDBRANCH  10  11
BRANCH  10  13
ATOM     13  C   TYR A   1      72.782  59.951  24.299  0.00  0.00    +0.224 C 
ATOM     14  O   TYR A   1      71.558  60.130  24.378  0.00  0.00    -0.287 OA
ENDBRANCH  10  13
ENDBRANCH   9  10
ENDBRANCH   1   9
TORSDOF 5
REMARK  Name = ../refined-set-2016/1toi/1toi_pocket.pdb
REMARK  148 active torsions:
REMARK  status: ('A' for Active; 'I' for Inactive)
REMARK    1  A    between atoms: _1  and  _3
REMARK    2  A    between atoms: _3  and  _4
REMARK    3  A    between atoms: _3  and  _6
REMARK    4  A    between atoms: _6  and  _7
REMARK    5  A    between atoms: _10  and  _12
REMARK    6  A    between atoms: _12  and  _13
REMARK    7  A    between atoms: _12  and  _15
REMARK    8  A    between atoms: _15  and  _16
REMARK    9  A    between atoms: _19  and  _21
REMARK   10  A    between atoms: _21  and  _22
REMARK   11  A    between atoms: _21  and  _24
REMARK   12  A    between atoms: _24  and  _25
REMARK   13  A    between atoms: _28  and  _30
REMARK   14  A    between atoms: _30  and  _31
REMARK   15  A    between atoms: _33  and  _35
REMARK   16  A    between atoms: _35  and  _36
REMARK   17  A    between atoms: _35  and  _38
REMARK   18  A    between atoms: _38  and  _39
REMARK   19  A    between atoms: _42  and  _44
REMARK   20  A    between atoms: _44  and  _45
REMARK   21  A    between atoms: _44  and  _47
REMARK   22  A    between atoms: _47  and  _48
REMARK   23  A    between atoms: _51  and  _53
REMARK   24  A    between atoms: _53  and  _54
REMARK   25  A    between atoms: _56  and  _58
REMARK   26  A    between atoms: _58  and  _59
REMARK   27  A    between atoms: _58  and  _61
REMARK   28  A    between atoms: _61  and  _62
REMARK   29  A    between atoms: _65  and  _67
REMARK   30  A    between atoms: _67  and  _68
REMARK   31  A    between atoms: _70  and  _72
REMARK   32  A    between atoms: _72  and  _73
REMARK   33  A    between atoms: _72  and  _75
REMARK   34  A    between atoms: _75  and  _76
REMARK   35  A    between atoms: _79  and  _81
REMARK   36  A    between atoms: _81  and  _82
REMARK   37  A    between atoms: _84  and  _86
REMARK   38  A    between atoms: _86  and  _87
REMARK   39  A    between atoms: _86  and  _89
REMARK   40  A    between atoms: _89  and  _90
REMARK   41  A    between atoms: _92  and  _94
REMARK   42  A    between atoms: _94  and  _95
REMARK   43  A    between atoms: _97  and  _99
REMARK   44  A    between atoms: _99  and  _100
REMARK   45  A    between atoms: _99  and  _102
REMARK   46  A    between atoms: _102  and  _103
REMARK   47  A    between atoms: _106  and  _108
REMARK   48  A    between atoms: _108  and  _109
REMARK   49  A    between atoms: _108  and  _111
REMARK   50  A    between atoms: _111  and  _112
REMARK   51  A    between atoms: _123  and  _124
REMARK   52  A    between atoms: _129  and  _131
REMARK   53  A    between atoms: _131  and  _132
REMARK   54  A    between atoms: _131  and  _134
REMARK   55  A    between atoms: _134  and  _135
REMARK   56  A    between atoms: _140  and  _142
REMARK   57  A    between atoms: _142  and  _143
REMARK   58  A    between atoms: _142  and  _145
REMARK   59  A    between atoms: _145  and  _146
REMARK   60  A    between atoms: _151  and  _153
REMARK   61  A    between atoms: _153  and  _154
REMARK   62  A    between atoms: _153  and  _156
REMARK   63  A    between atoms: _156  and  _157
REMARK   64  A    between atoms: _163  and  _164
REMARK   65  A    between atoms: _169  and  _171
REMARK   66  A    between atoms: _171  and  _172
REMARK   67  A    between atoms: _175  and  _177
REMARK   68  A    between atoms: _177  and  _178
REMARK   69  A    between atoms: _177  and  _180
REMARK   70  A    between atoms: _180  and  _181
REMARK   71  A    between atoms: _186  and  _187
REMARK   72  A    between atoms: _189  and  _191
REMARK   73  A    between atoms: _191  and  _192
REMARK   74  A    between atoms: _191  and  _194
REMARK   75  A    between atoms: _194  and  _195
REMARK   76  A    between atoms: _197  and  _199
REMARK   77  A    between atoms: _199  and  _200
REMARK   78  A    between atoms: _199  and  _202
REMARK   79  A    between atoms: _202  and  _203
REMARK   80  A    between atoms: _210  and  _211
REMARK   81  A    between atoms: _211  and  _227
REMARK   82  A    between atoms: _212  and  _214
REMARK   83  A    between atoms: _214  and  _215
REMARK   84  A    between atoms: _215  and  _216
REMARK   85  A    between atoms: _220  and  _222
REMARK   86  A    between atoms: _222  and  _223
REMARK   87  A    between atoms: _222  and  _230
REMARK   88  A    between atoms: _223  and  _224
REMARK   89  A    between atoms: _224  and  _225
REMARK   90  A    between atoms: _225  and  _226
REMARK   91  A    between atoms: _226  and  _227
REMARK   92  A    between atoms: _232  and  _234
REMARK   93  A    between atoms: _234  and  _235
REMARK   94  A    between atoms: _234  and  _237
REMARK   95  A    between atoms: _237  and  _238
REMARK   96  A    between atoms: _243  and  _244
REMARK   97  A    between atoms: _246  and  _248
REMARK   98  A    between atoms: _248  and  _249
REMARK   99  A    between atoms: _248  and  _251
REMARK  100  A    between atoms: _251  and  _252
REMARK  101  A    between atoms: _252  and  _253
REMARK  102  A    between atoms: _253  and  _254
REMARK  103  A    between atoms: _263  and  _265
REMARK  104  A    between atoms: _265  and  _266
REMARK  105  A    between atoms: _265  and  _268
REMARK  106  A    between atoms: _268  and  _269
REMARK  107  A    between atoms: _269  and  _270
REMARK  108  A    between atoms: _272  and  _274
REMARK  109  A    between atoms: _274  and  _275
REMARK  110  A    between atoms: _274  and  _277
REMARK  111  A    between atoms: _277  and  _278
REMARK  112  A    between atoms: _284  and  _286
REMARK  113  A    between atoms: _286  and  _287
REMARK  114  A    between atoms: _286  and  _289
REMARK  115  A    between atoms: _292  and  _294
REMARK  116  A    between atoms: _294  and  _295
REMARK  117  A    between atoms: _294  and  _297
REMARK  118  A    between atoms: _297  and  _298
REMARK  119  A    between atoms: _298  and  _299
REMARK  120  A    between atoms: _299  and  _300
REMARK  121  A    between atoms: _309  and  _311
REMARK  122  A    between atoms: _311  and  _312
REMARK  123  A    between atoms: _311  and  _314
REMARK  124  A    between atoms: _314  and  _315
REMARK  125  A    between atoms: _320  and  _322
REMARK  126  A    between atoms: _322  and  _323
REMARK  127  A    between atoms: _322  and  _325
REMARK  128  A    between atoms: _325  and  _326
REMARK  129  A    between atoms: _331  and  _332
REMARK  130  A    between atoms: _334  and  _336
REMARK  131  A    between atoms: _336  and  _337
REMARK  132  A    between atoms: _336  and  _339
REMARK  133  A    between atoms: _339  and  _340
REMARK  134  A    between atoms: _340  and  _341
REMARK  135  A    between atoms: _341  and  _342
REMARK  136  A    between atoms: _351  and  _353
REMARK  137  A    between atoms: _353  and  _354
REMARK  138  A    between atoms: _353  and  _356
REMARK  139  A    between atoms: _356  and  _357
REMARK  140  A    between atoms: _362  and  _363
REMARK  141  A    between atoms: _365  and  _367
REMARK  142  A    between atoms: _367  and  _368
REMARK  143  A    between atoms: _367  and  _370
REMARK  144  A    between atoms: _370  and  _371
REMARK  145  A    between atoms: _373  and  _375
REMARK  146  A    between atoms: _375  and  _376
REMARK  147  A    between atoms: _375  and  _378
REMARK  148  A    between atoms: _378  and  _379
REMARK                            x       y       z     vdW  Elec       q    Type
REMARK                         _______ _______ _______ _____ _____    ______ ____
ROOT
ATOM      1  NE  ARG A   1      73.408  44.719  25.093  0.00  0.00    -0.265 N 
ATOM      2  CZ  ARG A   1      72.274  44.027  25.134  0.00  0.00    +0.342 C 
ATOM      3  NH2 ARG A   1      71.260  44.419  25.909  0.00  0.00    -0.292 N 
ATOM      4 HH21 ARG A   1      71.351  45.276  26.491  0.00  0.00    +0.255 HD
ATOM      5 HH22 ARG A   1      70.379  43.867  25.931  0.00  0.00    +0.255 HD
ATOM      6  NH1 ARG A   1      72.159  42.924  24.410  0.00  0.00    -0.292 N 
ATOM      7 HH11 ARG A   1      71.276  42.375  24.435  0.00  0.00    +0.255 HD
ATOM      8 HH12 ARG A   1      72.952  42.607  23.816  0.00  0.00    +0.255 HD
ATOM      9  HE  ARG A   1      74.165  44.365  24.474  0.00  0.00    +0.259 HD
ENDROOT
BRANCH   1  10
ATOM     10  CD  ARG A   1      73.672  45.940  25.852  0.00  0.00    +0.174 C 
BRANCH  10  11
ATOM     11  CG  ARG A   1      73.422  47.204  25.052  0.00  0.00    +0.045 C 
BRANCH  11  12
ATOM     12  CB  ARG A   1      73.781  47.121  23.564  0.00  0.00    +0.029 C 
BRANCH  12  13
ATOM     13  CA  ARG A   1      75.163  47.656  23.174  0.00  0.00    +0.133 C 
BRANCH  13  14
ATOM     14  N   ARG A   1      75.309  47.588  21.729  0.00  0.00    -0.239 NA
ATOM     15  H   ARG A   1      74.500  47.273  21.157  0.00  0.00    +0.142 HD
ENDBRANCH  13  14
BRANCH  13  16
ATOM     16  C   ARG A   1      76.280  46.848  23.852  0.00  0.00    +0.224 C 
ATOM     17  O   ARG A   1      76.806  47.248  24.889  0.00  0.00    -0.287 OA
ENDBRANCH  13  16
ENDBRANCH  12  13
ENDBRANCH  11  12
ENDBRANCH  10  11
ENDBRANCH   1  10
TORSDOF 6
REMARK  Name = ../refined-set-2016/1toi/1toi_pocket.pdb
REMARK  148 active torsions:
REMARK  status: ('A' for Active; 'I' for Inactive)
REMARK    1  A    between atoms: _1  and  _3
REMARK    2  A    between atoms: _3  and  _4
REMARK    3  A    between atoms: _3  and  _6
REMARK    4  A    between atoms: _6  and  _7
REMARK    5  A    between atoms: _10  and  _12
REMARK    6  A    between atoms: _12  and  _13
REMARK    7  A    between atoms: _12  and  _15
REMARK    8  A    between atoms: _15  and  _16
REMARK    9  A    between atoms: _19  and  _21
REMARK   10  A    between atoms: _21  and  _22
REMARK   11  A    between atoms: _21  and  _24
REMARK   12  A    between atoms: _24  and  _25
REMARK   13  A    between atoms: _28  and  _30
REMARK   14  A    between atoms: _30  and  _31
REMARK   15  A    between atoms: _33  and  _35
REMARK   16  A    between atoms: _35  and  _36
REMARK   17  A    between atoms: _35  and  _38
REMARK   18  A    between atoms: _38  and  _39
REMARK   19  A    between atoms: _42  and  _44
REMARK   20  A    between atoms: _44  and  _45
REMARK   21  A    between atoms: _44  and  _47
REMARK   22  A    between atoms: _47  and  _48
REMARK   23  A    between atoms: _51  and  _53
REMARK   24  A    between atoms: _53  and  _54
REMARK   25  A    between atoms: _56  and  _58
REMARK   26  A    between atoms: _58  and  _59
REMARK   27  A    between atoms: _58  and  _61
REMARK   28  A    between atoms: _61  and  _62
REMARK   29  A    between atoms: _65  and  _67
REMARK   30  A    between atoms: _67  and  _68
REMARK   31  A    between atoms: _70  and  _72
REMARK   32  A    between atoms: _72  and  _73
REMARK   33  A    between atoms: _72  and  _75
REMARK   34  A    between atoms: _75  and  _76
REMARK   35  A    between atoms: _79  and  _81
REMARK   36  A    between atoms: _81  and  _82
REMARK   37  A    between atoms: _84  and  _86
REMARK   38  A    between atoms: _86  and  _87
REMARK   39  A    between atoms: _86  and  _89
REMARK   40  A    between atoms: _89  and  _90
REMARK   41  A    between atoms: _92  and  _94
REMARK   42  A    between atoms: _94  and  _95
REMARK   43  A    between atoms: _97  and  _99
REMARK   44  A    between atoms: _99  and  _100
REMARK   45  A    between atoms: _99  and  _102
REMARK   46  A    between atoms: _102  and  _103
REMARK   47  A    between atoms: _106  and  _108
REMARK   48  A    between atoms: _108  and  _109
REMARK   49  A    between atoms: _108  and  _111
REMARK   50  A    between atoms: _111  and  _112
REMARK   51  A    between atoms: _123  and  _124
REMARK   52  A    between atoms: _129  and  _131
REMARK   53  A    between atoms: _131  and  _132
REMARK   54  A    between atoms: _131  and  _134
REMARK   55  A    between atoms: _134  and  _135
REMARK   56  A    between atoms: _140  and  _142
REMARK   57  A    between atoms: _142  and  _143
REMARK   58  A    between atoms: _142  and  _145
REMARK   59  A    between atoms: _145  and  _146
REMARK   60  A    between atoms: _151  and  _153
REMARK   61  A    between atoms: _153  and  _154
REMARK   62  A    between atoms: _153  and  _156
REMARK   63  A    between atoms: _156  and  _157
REMARK   64  A    between atoms: _163  and  _164
REMARK   65  A    between atoms: _169  and  _171
REMARK   66  A    between atoms: _171  and  _172
REMARK   67  A    between atoms: _175  and  _177
REMARK   68  A    between atoms: _177  and  _178
REMARK   69  A    between atoms: _177  and  _180
REMARK   70  A    between atoms: _180  and  _181
REMARK   71  A    between atoms: _186  and  _187
REMARK   72  A    between atoms: _189  and  _191
REMARK   73  A    between atoms: _191  and  _192
REMARK   74  A    between atoms: _191  and  _194
REMARK   75  A    between atoms: _194  and  _195
REMARK   76  A    between atoms: _197  and  _199
REMARK   77  A    between atoms: _199  and  _200
REMARK   78  A    between atoms: _199  and  _202
REMARK   79  A    between atoms: _202  and  _203
REMARK   80  A    between atoms: _210  and  _211
REMARK   81  A    between atoms: _211  and  _227
REMARK   82  A    between atoms: _212  and  _214
REMARK   83  A    between atoms: _214  and  _215
REMARK   84  A    between atoms: _215  and  _216
REMARK   85  A    between atoms: _220  and  _222
REMARK   86  A    between atoms: _222  and  _223
REMARK   87  A    between atoms: _222  and  _230
REMARK   88  A    between atoms: _223  and  _224
REMARK   89  A    between atoms: _224  and  _225
REMARK   90  A    between atoms: _225  and  _226
REMARK   91  A    between atoms: _226  and  _227
REMARK   92  A    between atoms: _232  and  _234
REMARK   93  A    between atoms: _234  and  _235
REMARK   94  A    between atoms: _234  and  _237
REMARK   95  A    between atoms: _237  and  _238
REMARK   96  A    between atoms: _243  and  _244
REMARK   97  A    between atoms: _246  and  _248
REMARK   98  A    between atoms: _248  and  _249
REMARK   99  A    between atoms: _248  and  _251
REMARK  100  A    between atoms: _251  and  _252
REMARK  101  A    between atoms: _252  and  _253
REMARK  102  A    between atoms: _253  and  _254
REMARK  103  A    between atoms: _263  and  _265
REMARK  104  A    between atoms: _265  and  _266
REMARK  105  A    between atoms: _265  and  _268
REMARK  106  A    between atoms: _268  and  _269
REMARK  107  A    between atoms: _269  and  _270
REMARK  108  A    between atoms: _272  and  _274
REMARK  109  A    between atoms: _274  and  _275
REMARK  110  A    between atoms: _274  and  _277
REMARK  111  A    between atoms: _277  and  _278
REMARK  112  A    between atoms: _284  and  _286
REMARK  113  A    between atoms: _286  and  _287
REMARK  114  A    between atoms: _286  and  _289
REMARK  115  A    between atoms: _292  and  _294
REMARK  116  A    between atoms: _294  and  _295
REMARK  117  A    between atoms: _294  and  _297
REMARK  118  A    between atoms: _297  and  _298
REMARK  119  A    between atoms: _298  and  _299
REMARK  120  A    between atoms: _299  and  _300
REMARK  121  A    between atoms: _309  and  _311
REMARK  122  A    between atoms: _311  and  _312
REMARK  123  A    between atoms: _311  and  _314
REMARK  124  A    between atoms: _314  and  _315
REMARK  125  A    between atoms: _320  and  _322
REMARK  126  A    between atoms: _322  and  _323
REMARK  127  A    between atoms: _322  and  _325
REMARK  128  A    between atoms: _325  and  _326
REMARK  129  A    between atoms: _331  and  _332
REMARK  130  A    between atoms: _334  and  _336
REMARK  131  A    between atoms: _336  and  _337
REMARK  132  A    between atoms: _336  and  _339
REMARK  133  A    between atoms: _339  and  _340
REMARK  134  A    between atoms: _340  and  _341
REMARK  135  A    between atoms: _341  and  _342
REMARK  136  A    between atoms: _351  and  _353
REMARK  137  A    between atoms: _353  and  _354
REMARK  138  A    between atoms: _353  and  _356
REMARK  139  A    between atoms: _356  and  _357
REMARK  140  A    between atoms: _362  and  _363
REMARK  141  A    between atoms: _365  and  _367
REMARK  142  A    between atoms: _367  and  _368
REMARK  143  A    between atoms: _367  and  _370
REMARK  144  A    between atoms: _370  and  _371
REMARK  145  A    between atoms: _373  and  _375
REMARK  146  A    between atoms: _375  and  _376
REMARK  147  A    between atoms: _375  and  _378
REMARK  148  A    between atoms: _378  and  _379
REMARK                            x       y       z     vdW  Elec       q    Type
REMARK                         _______ _______ _______ _____ _____    ______ ____
ROOT
ATOM      1  C   TYR A   1      79.438  51.382  23.387  0.00  0.00    +0.239 C 
ATOM      2  O   TYR A   1      79.508  52.547  23.791  0.00  0.00    -0.274 OA
ATOM      3  N   SER A   2      78.289  50.690  23.332  0.00  0.00    -0.295 N 
ATOM      4  H   SER A   2      78.303  49.755  22.877  0.00  0.00    +0.150 HD
ENDROOT
BRANCH   1   5
ATOM      5  CA  TYR A   1      80.722  50.639  22.922  0.00  0.00    +0.149 C 
BRANCH   5   6
ATOM      6  N   TYR A   1      80.412  49.298  22.372  0.00  0.00    -0.238 NA
ATOM      7  H   TYR A   1      79.908  49.232  21.465  0.00  0.00    +0.142 HD
ENDBRANCH   5   6
BRANCH   5   8
ATOM      8  CB  TYR A   1      81.504  51.489  21.886  0.00  0.00    +0.053 C 
BRANCH   8   9
ATOM      9  CG  TYR A   1      80.780  51.543  20.567  0.00  0.00    -0.020 A 
ATOM     10  CD2 TYR A   1      79.754  52.453  20.363  0.00  0.00    -0.001 A 
ATOM     11  CE2 TYR A   1      79.042  52.473  19.184  0.00  0.00    +0.036 A 
ATOM     12  CZ  TYR A   1      79.336  51.556  18.191  0.00  0.00    +0.134 A 
ATOM     13  CE1 TYR A   1      80.349  50.629  18.363  0.00  0.00    +0.036 A 
ATOM     14  CD1 TYR A   1      81.070  50.630  19.550  0.00  0.00    -0.001 A 
BRANCH  12  15
ATOM     15  OH  TYR A   1      78.597  51.557  17.037  0.00  0.00    -0.506 OA
ATOM     16  HH  TYR A   1      77.921  52.279  17.080  0.00  0.00    +0.292 HD
ENDBRANCH  12  15
ENDBRANCH   8   9
ENDBRANCH   5   8
ENDBRANCH   1   5
BRANCH   3  17
ATOM     17  CA  SER A   2      76.999  51.179  23.881  0.00  0.00    +0.178 C 
BRANCH  17  18
ATOM     18  C   SER A   2      76.290  52.235  23.014  0.00  0.00    +0.243 C 
ATOM     19  N   SER A   3      76.969  53.344  22.720  0.00  0.00    -0.296 N 
ATOM     20  H   SER A   3      77.929  53.465  23.100  0.00  0.00    +0.150 HD
ATOM     21  O   SER A   2      75.149  52.025  22.593  0.00  0.00    -0.273 OA
BRANCH  19  22
ATOM     22  CA  SER A   3      76.400  54.395  21.877  0.00  0.00    +0.166 C 
BRANCH  22  23
ATOM     23  C   SER A   3      77.534  55.215  21.273  0.00  0.00    +0.229 C 
ATOM     24  O   SER A   3      78.618  55.214  21.823  0.00  0.00    -0.286 OA
ENDBRANCH  22  23
BRANCH  22  25
ATOM     25  CB  SER A   3      75.415  55.269  22.674  0.00  0.00    +0.165 C 
BRANCH  25  26
ATOM     26  OG  SER A   3      76.055  56.025  23.659  0.00  0.00    -0.380 OA
ATOM     27  H   SER A   3      76.721  56.622  23.235  0.00  0.00    +0.211 HD
ENDBRANCH  25  26
ENDBRANCH  22  25
ENDBRANCH  19  22
ENDBRANCH  17  18
BRANCH  17  28
ATOM     28  CB  SER A   2      77.164  51.680  25.323  0.00  0.00    +0.166 C 
BRANCH  28  29
ATOM     29  OG  SER A   2      75.910  52.016  25.898  0.00  0.00    -0.380 OA
ATOM     30  H   SER A   2      75.483  52.731  25.362  0.00  0.00    +0.211 HD
ENDBRANCH  28  29
ENDBRANCH  17  28
ENDBRANCH   3  17
TORSDOF 13
REMARK  Name = ../refined-set-2016/1toi/1toi_pocket.pdb
REMARK  148 active torsions:
REMARK  status: ('A' for Active; 'I' for Inactive)
REMARK    1  A    between atoms: _1  and  _3
REMARK    2  A    between atoms: _3  and  _4
REMARK    3  A    between atoms: _3  and  _6
REMARK    4  A    between atoms: _6  and  _7
REMARK    5  A    between atoms: _10  and  _12
REMARK    6  A    between atoms: _12  and  _13
REMARK    7  A    between atoms: _12  and  _15
REMARK    8  A    between atoms: _15  and  _16
REMARK    9  A    between atoms: _19  and  _21
REMARK   10  A    between atoms: _21  and  _22
REMARK   11  A    between atoms: _21  and  _24
REMARK   12  A    between atoms: _24  and  _25
REMARK   13  A    between atoms: _28  and  _30
REMARK   14  A    between atoms: _30  and  _31
REMARK   15  A    between atoms: _33  and  _35
REMARK   16  A    between atoms: _35  and  _36
REMARK   17  A    between atoms: _35  and  _38
REMARK   18  A    between atoms: _38  and  _39
REMARK   19  A    between atoms: _42  and  _44
REMARK   20  A    between atoms: _44  and  _45
REMARK   21  A    between atoms: _44  and  _47
REMARK   22  A    between atoms: _47  and  _48
REMARK   23  A    between atoms: _51  and  _53
REMARK   24  A    between atoms: _53  and  _54
REMARK   25  A    between atoms: _56  and  _58
REMARK   26  A    between atoms: _58  and  _59
REMARK   27  A    between atoms: _58  and  _61
REMARK   28  A    between atoms: _61  and  _62
REMARK   29  A    between atoms: _65  and  _67
REMARK   30  A    between atoms: _67  and  _68
REMARK   31  A    between atoms: _70  and  _72
REMARK   32  A    between atoms: _72  and  _73
REMARK   33  A    between atoms: _72  and  _75
REMARK   34  A    between atoms: _75  and  _76
REMARK   35  A    between atoms: _79  and  _81
REMARK   36  A    between atoms: _81  and  _82
REMARK   37  A    between atoms: _84  and  _86
REMARK   38  A    between atoms: _86  and  _87
REMARK   39  A    between atoms: _86  and  _89
REMARK   40  A    between atoms: _89  and  _90
REMARK   41  A    between atoms: _92  and  _94
REMARK   42  A    between atoms: _94  and  _95
REMARK   43  A    between atoms: _97  and  _99
REMARK   44  A    between atoms: _99  and  _100
REMARK   45  A    between atoms: _99  and  _102
REMARK   46  A    between atoms: _102  and  _103
REMARK   47  A    between atoms: _106  and  _108
REMARK   48  A    between atoms: _108  and  _109
REMARK   49  A    between atoms: _108  and  _111
REMARK   50  A    between atoms: _111  and  _112
REMARK   51  A    between atoms: _123  and  _124
REMARK   52  A    between atoms: _129  and  _131
REMARK   53  A    between atoms: _131  and  _132
REMARK   54  A    between atoms: _131  and  _134
REMARK   55  A    between atoms: _134  and  _135
REMARK   56  A    between atoms: _140  and  _142
REMARK   57  A    between atoms: _142  and  _143
REMARK   58  A    between atoms: _142  and  _145
REMARK   59  A    between atoms: _145  and  _146
REMARK   60  A    between atoms: _151  and  _153
REMARK   61  A    between atoms: _153  and  _154
REMARK   62  A    between atoms: _153  and  _156
REMARK   63  A    between atoms: _156  and  _157
REMARK   64  A    between atoms: _163  and  _164
REMARK   65  A    between atoms: _169  and  _171
REMARK   66  A    between atoms: _171  and  _172
REMARK   67  A    between atoms: _175  and  _177
REMARK   68  A    between atoms: _177  and  _178
REMARK   69  A    between atoms: _177  and  _180
REMARK   70  A    between atoms: _180  and  _181
REMARK   71  A    between atoms: _186  and  _187
REMARK   72  A    between atoms: _189  and  _191
REMARK   73  A    between atoms: _191  and  _192
REMARK   74  A    between atoms: _191  and  _194
REMARK   75  A    between atoms: _194  and  _195
REMARK   76  A    between atoms: _197  and  _199
REMARK   77  A    between atoms: _199  and  _200
REMARK   78  A    between atoms: _199  and  _202
REMARK   79  A    between atoms: _202  and  _203
REMARK   80  A    between atoms: _210  and  _211
REMARK   81  A    between atoms: _211  and  _227
REMARK   82  A    between atoms: _212  and  _214
REMARK   83  A    between atoms: _214  and  _215
REMARK   84  A    between atoms: _215  and  _216
REMARK   85  A    between atoms: _220  and  _222
REMARK   86  A    between atoms: _222  and  _223
REMARK   87  A    between atoms: _222  and  _230
REMARK   88  A    between atoms: _223  and  _224
REMARK   89  A    between atoms: _224  and  _225
REMARK   90  A    between atoms: _225  and  _226
REMARK   91  A    between atoms: _226  and  _227
REMARK   92  A    between atoms: _232  and  _234
REMARK   93  A    between atoms: _234  and  _235
REMARK   94  A    between atoms: _234  and  _237
REMARK   95  A    between atoms: _237  and  _238
REMARK   96  A    between atoms: _243  and  _244
REMARK   97  A    between atoms: _246  and  _248
REMARK   98  A    between atoms: _248  and  _249
REMARK   99  A    between atoms: _248  and  _251
REMARK  100  A    between atoms: _251  and  _252
REMARK  101  A    between atoms: _252  and  _253
REMARK  102  A    between atoms: _253  and  _254
REMARK  103  A    between atoms: _263  and  _265
REMARK  104  A    between atoms: _265  and  _266
REMARK  105  A    between atoms: _265  and  _268
REMARK  106  A    between atoms: _268  and  _269
REMARK  107  A    between atoms: _269  and  _270
REMARK  108  A    between atoms: _272  and  _274
REMARK  109  A    between atoms: _274  and  _275
REMARK  110  A    between atoms: _274  and  _277
REMARK  111  A    between atoms: _277  and  _278
REMARK  112  A    between atoms: _284  and  _286
REMARK  113  A    between atoms: _286  and  _287
REMARK  114  A    between atoms: _286  and  _289
REMARK  115  A    between atoms: _292  and  _294
REMARK  116  A    between atoms: _294  and  _295
REMARK  117  A    between atoms: _294  and  _297
REMARK  118  A    between atoms: _297  and  _298
REMARK  119  A    between atoms: _298  and  _299
REMARK  120  A    between atoms: _299  and  _300
REMARK  121  A    between atoms: _309  and  _311
REMARK  122  A    between atoms: _311  and  _312
REMARK  123  A    between atoms: _311  and  _314
REMARK  124  A    between atoms: _314  and  _315
REMARK  125  A    between atoms: _320  and  _322
REMARK  126  A    between atoms: _322  and  _323
REMARK  127  A    between atoms: _322  and  _325
REMARK  128  A    between atoms: _325  and  _326
REMARK  129  A    between atoms: _331  and  _332
REMARK  130  A    between atoms: _334  and  _336
REMARK  131  A    between atoms: _336  and  _337
REMARK  132  A    between atoms: _336  and  _339
REMARK  133  A    between atoms: _339  and  _340
REMARK  134  A    between atoms: _340  and  _341
REMARK  135  A    between atoms: _341  and  _342
REMARK  136  A    between atoms: _351  and  _353
REMARK  137  A    between atoms: _353  and  _354
REMARK  138  A    between atoms: _353  and  _356
REMARK  139  A    between atoms: _356  and  _357
REMARK  140  A    between atoms: _362  and  _363
REMARK  141  A    between atoms: _365  and  _367
REMARK  142  A    between atoms: _367  and  _368
REMARK  143  A    between atoms: _367  and  _370
REMARK  144  A    between atoms: _370  and  _371
REMARK  145  A    between atoms: _373  and  _375
REMARK  146  A    between atoms: _375  and  _376
REMARK  147  A    between atoms: _375  and  _378
REMARK  148  A    between atoms: _378  and  _379
REMARK                            x       y       z     vdW  Elec       q    Type
REMARK                         _______ _______ _______ _____ _____    ______ ____
ROOT
ATOM      1  O   HOH     1      79.502  51.776  39.700  0.00  0.00    +0.000 OA
ENDROOT
TORSDOF 0
REMARK  Name = ../refined-set-2016/1toi/1toi_pocket.pdb
REMARK  148 active torsions:
REMARK  status: ('A' for Active; 'I' for Inactive)
REMARK    1  A    between atoms: _1  and  _3
REMARK    2  A    between atoms: _3  and  _4
REMARK    3  A    between atoms: _3  and  _6
REMARK    4  A    between atoms: _6  and  _7
REMARK    5  A    between atoms: _10  and  _12
REMARK    6  A    between atoms: _12  and  _13
REMARK    7  A    between atoms: _12  and  _15
REMARK    8  A    between atoms: _15  and  _16
REMARK    9  A    between atoms: _19  and  _21
REMARK   10  A    between atoms: _21  and  _22
REMARK   11  A    between atoms: _21  and  _24
REMARK   12  A    between atoms: _24  and  _25
REMARK   13  A    between atoms: _28  and  _30
REMARK   14  A    between atoms: _30  and  _31
REMARK   15  A    between atoms: _33  and  _35
REMARK   16  A    between atoms: _35  and  _36
REMARK   17  A    between atoms: _35  and  _38
REMARK   18  A    between atoms: _38  and  _39
REMARK   19  A    between atoms: _42  and  _44
REMARK   20  A    between atoms: _44  and  _45
REMARK   21  A    between atoms: _44  and  _47
REMARK   22  A    between atoms: _47  and  _48
REMARK   23  A    between atoms: _51  and  _53
REMARK   24  A    between atoms: _53  and  _54
REMARK   25  A    between atoms: _56  and  _58
REMARK   26  A    between atoms: _58  and  _59
REMARK   27  A    between atoms: _58  and  _61
REMARK   28  A    between atoms: _61  and  _62
REMARK   29  A    between atoms: _65  and  _67
REMARK   30  A    between atoms: _67  and  _68
REMARK   31  A    between atoms: _70  and  _72
REMARK   32  A    between atoms: _72  and  _73
REMARK   33  A    between atoms: _72  and  _75
REMARK   34  A    between atoms: _75  and  _76
REMARK   35  A    between atoms: _79  and  _81
REMARK   36  A    between atoms: _81  and  _82
REMARK   37  A    between atoms: _84  and  _86
REMARK   38  A    between atoms: _86  and  _87
REMARK   39  A    between atoms: _86  and  _89
REMARK   40  A    between atoms: _89  and  _90
REMARK   41  A    between atoms: _92  and  _94
REMARK   42  A    between atoms: _94  and  _95
REMARK   43  A    between atoms: _97  and  _99
REMARK   44  A    between atoms: _99  and  _100
REMARK   45  A    between atoms: _99  and  _102
REMARK   46  A    between atoms: _102  and  _103
REMARK   47  A    between atoms: _106  and  _108
REMARK   48  A    between atoms: _108  and  _109
REMARK   49  A    between atoms: _108  and  _111
REMARK   50  A    between atoms: _111  and  _112
REMARK   51  A    between atoms: _123  and  _124
REMARK   52  A    between atoms: _129  and  _131
REMARK   53  A    between atoms: _131  and  _132
REMARK   54  A    between atoms: _131  and  _134
REMARK   55  A    between atoms: _134  and  _135
REMARK   56  A    between atoms: _140  and  _142
REMARK   57  A    between atoms: _142  and  _143
REMARK   58  A    between atoms: _142  and  _145
REMARK   59  A    between atoms: _145  and  _146
REMARK   60  A    between atoms: _151  and  _153
REMARK   61  A    between atoms: _153  and  _154
REMARK   62  A    between atoms: _153  and  _156
REMARK   63  A    between atoms: _156  and  _157
REMARK   64  A    between atoms: _163  and  _164
REMARK   65  A    between atoms: _169  and  _171
REMARK   66  A    between atoms: _171  and  _172
REMARK   67  A    between atoms: _175  and  _177
REMARK   68  A    between atoms: _177  and  _178
REMARK   69  A    between atoms: _177  and  _180
REMARK   70  A    between atoms: _180  and  _181
REMARK   71  A    between atoms: _186  and  _187
REMARK   72  A    between atoms: _189  and  _191
REMARK   73  A    between atoms: _191  and  _192
REMARK   74  A    between atoms: _191  and  _194
REMARK   75  A    between atoms: _194  and  _195
REMARK   76  A    between atoms: _197  and  _199
REMARK   77  A    between atoms: _199  and  _200
REMARK   78  A    between atoms: _199  and  _202
REMARK   79  A    between atoms: _202  and  _203
REMARK   80  A    between atoms: _210  and  _211
REMARK   81  A    between atoms: _211  and  _227
REMARK   82  A    between atoms: _212  and  _214
REMARK   83  A    between atoms: _214  and  _215
REMARK   84  A    between atoms: _215  and  _216
REMARK   85  A    between atoms: _220  and  _222
REMARK   86  A    between atoms: _222  and  _223
REMARK   87  A    between atoms: _222  and  _230
REMARK   88  A    between atoms: _223  and  _224
REMARK   89  A    between atoms: _224  and  _225
REMARK   90  A    between atoms: _225  and  _226
REMARK   91  A    between atoms: _226  and  _227
REMARK   92  A    between atoms: _232  and  _234
REMARK   93  A    between atoms: _234  and  _235
REMARK   94  A    between atoms: _234  and  _237
REMARK   95  A    between atoms: _237  and  _238
REMARK   96  A    between atoms: _243  and  _244
REMARK   97  A    between atoms: _246  and  _248
REMARK   98  A    between atoms: _248  and  _249
REMARK   99  A    between atoms: _248  and  _251
REMARK  100  A    between atoms: _251  and  _252
REMARK  101  A    between atoms: _252  and  _253
REMARK  102  A    between atoms: _253  and  _254
REMARK  103  A    between atoms: _263  and  _265
REMARK  104  A    between atoms: _265  and  _266
REMARK  105  A    between atoms: _265  and  _268
REMARK  106  A    between atoms: _268  and  _269
REMARK  107  A    between atoms: _269  and  _270
REMARK  108  A    between atoms: _272  and  _274
REMARK  109  A    between atoms: _274  and  _275
REMARK  110  A    between atoms: _274  and  _277
REMARK  111  A    between atoms: _277  and  _278
REMARK  112  A    between atoms: _284  and  _286
REMARK  113  A    between atoms: _286  and  _287
REMARK  114  A    between atoms: _286  and  _289
REMARK  115  A    between atoms: _292  and  _294
REMARK  116  A    between atoms: _294  and  _295
REMARK  117  A    between atoms: _294  and  _297
REMARK  118  A    between atoms: _297  and  _298
REMARK  119  A    between atoms: _298  and  _299
REMARK  120  A    between atoms: _299  and  _300
REMARK  121  A    between atoms: _309  and  _311
REMARK  122  A    between atoms: _311  and  _312
REMARK  123  A    between atoms: _311  and  _314
REMARK  124  A    between atoms: _314  and  _315
REMARK  125  A    between atoms: _320  and  _322
REMARK  126  A    between atoms: _322  and  _323
REMARK  127  A    between atoms: _322  and  _325
REMARK  128  A    between atoms: _325  and  _326
REMARK  129  A    between atoms: _331  and  _332
REMARK  130  A    between atoms: _334  and  _336
REMARK  131  A    between atoms: _336  and  _337
REMARK  132  A    between atoms: _336  and  _339
REMARK  133  A    between atoms: _339  and  _340
REMARK  134  A    between atoms: _340  and  _341
REMARK  135  A    between atoms: _341  and  _342
REMARK  136  A    between atoms: _351  and  _353
REMARK  137  A    between atoms: _353  and  _354
REMARK  138  A    between atoms: _353  and  _356
REMARK  139  A    between atoms: _356  and  _357
REMARK  140  A    between atoms: _362  and  _363
REMARK  141  A    between atoms: _365  and  _367
REMARK  142  A    between atoms: _367  and  _368
REMARK  143  A    between atoms: _367  and  _370
REMARK  144  A    between atoms: _370  and  _371
REMARK  145  A    between atoms: _373  and  _375
REMARK  146  A    between atoms: _375  and  _376
REMARK  147  A    between atoms: _375  and  _378
REMARK  148  A    between atoms: _378  and  _379
REMARK                            x       y       z     vdW  Elec       q    Type
REMARK                         _______ _______ _______ _____ _____    ______ ____
ROOT
ATOM      1  O   HOH     1      69.594  48.030  37.976  0.00  0.00    +0.000 OA
ENDROOT
TORSDOF 0
REMARK  Name = ../refined-set-2016/1toi/1toi_pocket.pdb
REMARK  148 active torsions:
REMARK  status: ('A' for Active; 'I' for Inactive)
REMARK    1  A    between atoms: _1  and  _3
REMARK    2  A    between atoms: _3  and  _4
REMARK    3  A    between atoms: _3  and  _6
REMARK    4  A    between atoms: _6  and  _7
REMARK    5  A    between atoms: _10  and  _12
REMARK    6  A    between atoms: _12  and  _13
REMARK    7  A    between atoms: _12  and  _15
REMARK    8  A    between atoms: _15  and  _16
REMARK    9  A    between atoms: _19  and  _21
REMARK   10  A    between atoms: _21  and  _22
REMARK   11  A    between atoms: _21  and  _24
REMARK   12  A    between atoms: _24  and  _25
REMARK   13  A    between atoms: _28  and  _30
REMARK   14  A    between atoms: _30  and  _31
REMARK   15  A    between atoms: _33  and  _35
REMARK   16  A    between atoms: _35  and  _36
REMARK   17  A    between atoms: _35  and  _38
REMARK   18  A    between atoms: _38  and  _39
REMARK   19  A    between atoms: _42  and  _44
REMARK   20  A    between atoms: _44  and  _45
REMARK   21  A    between atoms: _44  and  _47
REMARK   22  A    between atoms: _47  and  _48
REMARK   23  A    between atoms: _51  and  _53
REMARK   24  A    between atoms: _53  and  _54
REMARK   25  A    between atoms: _56  and  _58
REMARK   26  A    between atoms: _58  and  _59
REMARK   27  A    between atoms: _58  and  _61
REMARK   28  A    between atoms: _61  and  _62
REMARK   29  A    between atoms: _65  and  _67
REMARK   30  A    between atoms: _67  and  _68
REMARK   31  A    between atoms: _70  and  _72
REMARK   32  A    between atoms: _72  and  _73
REMARK   33  A    between atoms: _72  and  _75
REMARK   34  A    between atoms: _75  and  _76
REMARK   35  A    between atoms: _79  and  _81
REMARK   36  A    between atoms: _81  and  _82
REMARK   37  A    between atoms: _84  and  _86
REMARK   38  A    between atoms: _86  and  _87
REMARK   39  A    between atoms: _86  and  _89
REMARK   40  A    between atoms: _89  and  _90
REMARK   41  A    between atoms: _92  and  _94
REMARK   42  A    between atoms: _94  and  _95
REMARK   43  A    between atoms: _97  and  _99
REMARK   44  A    between atoms: _99  and  _100
REMARK   45  A    between atoms: _99  and  _102
REMARK   46  A    between atoms: _102  and  _103
REMARK   47  A    between atoms: _106  and  _108
REMARK   48  A    between atoms: _108  and  _109
REMARK   49  A    between atoms: _108  and  _111
REMARK   50  A    between atoms: _111  and  _112
REMARK   51  A    between atoms: _123  and  _124
REMARK   52  A    between atoms: _129  and  _131
REMARK   53  A    between atoms: _131  and  _132
REMARK   54  A    between atoms: _131  and  _134
REMARK   55  A    between atoms: _134  and  _135
REMARK   56  A    between atoms: _140  and  _142
REMARK   57  A    between atoms: _142  and  _143
REMARK   58  A    between atoms: _142  and  _145
REMARK   59  A    between atoms: _145  and  _146
REMARK   60  A    between atoms: _151  and  _153
REMARK   61  A    between atoms: _153  and  _154
REMARK   62  A    between atoms: _153  and  _156
REMARK   63  A    between atoms: _156  and  _157
REMARK   64  A    between atoms: _163  and  _164
REMARK   65  A    between atoms: _169  and  _171
REMARK   66  A    between atoms: _171  and  _172
REMARK   67  A    between atoms: _175  and  _177
REMARK   68  A    between atoms: _177  and  _178
REMARK   69  A    between atoms: _177  and  _180
REMARK   70  A    between atoms: _180  and  _181
REMARK   71  A    between atoms: _186  and  _187
REMARK   72  A    between atoms: _189  and  _191
REMARK   73  A    between atoms: _191  and  _192
REMARK   74  A    between atoms: _191  and  _194
REMARK   75  A    between atoms: _194  and  _195
REMARK   76  A    between atoms: _197  and  _199
REMARK   77  A    between atoms: _199  and  _200
REMARK   78  A    between atoms: _199  and  _202
REMARK   79  A    between atoms: _202  and  _203
REMARK   80  A    between atoms: _210  and  _211
REMARK   81  A    between atoms: _211  and  _227
REMARK   82  A    between atoms: _212  and  _214
REMARK   83  A    between atoms: _214  and  _215
REMARK   84  A    between atoms: _215  and  _216
REMARK   85  A    between atoms: _220  and  _222
REMARK   86  A    between atoms: _222  and  _223
REMARK   87  A    between atoms: _222  and  _230
REMARK   88  A    between atoms: _223  and  _224
REMARK   89  A    between atoms: _224  and  _225
REMARK   90  A    between atoms: _225  and  _226
REMARK   91  A    between atoms: _226  and  _227
REMARK   92  A    between atoms: _232  and  _234
REMARK   93  A    between atoms: _234  and  _235
REMARK   94  A    between atoms: _234  and  _237
REMARK   95  A    between atoms: _237  and  _238
REMARK   96  A    between atoms: _243  and  _244
REMARK   97  A    between atoms: _246  and  _248
REMARK   98  A    between atoms: _248  and  _249
REMARK   99  A    between atoms: _248  and  _251
REMARK  100  A    between atoms: _251  and  _252
REMARK  101  A    between atoms: _252  and  _253
REMARK  102  A    between atoms: _253  and  _254
REMARK  103  A    between atoms: _263  and  _265
REMARK  104  A    between atoms: _265  and  _266
REMARK  105  A    between atoms: _265  and  _268
REMARK  106  A    between atoms: _268  and  _269
REMARK  107  A    between atoms: _269  and  _270
REMARK  108  A    between atoms: _272  and  _274
REMARK  109  A    between atoms: _274  and  _275
REMARK  110  A    between atoms: _274  and  _277
REMARK  111  A    between atoms: _277  and  _278
REMARK  112  A    between atoms: _284  and  _286
REMARK  113  A    between atoms: _286  and  _287
REMARK  114  A    between atoms: _286  and  _289
REMARK  115  A    between atoms: _292  and  _294
REMARK  116  A    between atoms: _294  and  _295
REMARK  117  A    between atoms: _294  and  _297
REMARK  118  A    between atoms: _297  and  _298
REMARK  119  A    between atoms: _298  and  _299
REMARK  120  A    between atoms: _299  and  _300
REMARK  121  A    between atoms: _309  and  _311
REMARK  122  A    between atoms: _311  and  _312
REMARK  123  A    between atoms: _311  and  _314
REMARK  124  A    between atoms: _314  and  _315
REMARK  125  A    between atoms: _320  and  _322
REMARK  126  A    between atoms: _322  and  _323
REMARK  127  A    between atoms: _322  and  _325
REMARK  128  A    between atoms: _325  and  _326
REMARK  129  A    between atoms: _331  and  _332
REMARK  130  A    between atoms: _334  and  _336
REMARK  131  A    between atoms: _336  and  _337
REMARK  132  A    between atoms: _336  and  _339
REMARK  133  A    between atoms: _339  and  _340
REMARK  134  A    between atoms: _340  and  _341
REMARK  135  A    between atoms: _341  and  _342
REMARK  136  A    between atoms: _351  and  _353
REMARK  137  A    between atoms: _353  and  _354
REMARK  138  A    between atoms: _353  and  _356
REMARK  139  A    between atoms: _356  and  _357
REMARK  140  A    between atoms: _362  and  _363
REMARK  141  A    between atoms: _365  and  _367
REMARK  142  A    between atoms: _367  and  _368
REMARK  143  A    between atoms: _367  and  _370
REMARK  144  A    between atoms: _370  and  _371
REMARK  145  A    between atoms: _373  and  _375
REMARK  146  A    between atoms: _375  and  _376
REMARK  147  A    between atoms: _375  and  _378
REMARK  148  A    between atoms: _378  and  _379
REMARK                            x       y       z     vdW  Elec       q    Type
REMARK                         _______ _______ _______ _____ _____    ______ ____
ROOT
ATOM      1  O   HOH     1      67.763  54.571  38.088  0.00  0.00    +0.000 OA
ENDROOT
TORSDOF 0
REMARK  Name = ../refined-set-2016/1toi/1toi_pocket.pdb
REMARK  148 active torsions:
REMARK  status: ('A' for Active; 'I' for Inactive)
REMARK    1  A    between atoms: _1  and  _3
REMARK    2  A    between atoms: _3  and  _4
REMARK    3  A    between atoms: _3  and  _6
REMARK    4  A    between atoms: _6  and  _7
REMARK    5  A    between atoms: _10  and  _12
REMARK    6  A    between atoms: _12  and  _13
REMARK    7  A    between atoms: _12  and  _15
REMARK    8  A    between atoms: _15  and  _16
REMARK    9  A    between atoms: _19  and  _21
REMARK   10  A    between atoms: _21  and  _22
REMARK   11  A    between atoms: _21  and  _24
REMARK   12  A    between atoms: _24  and  _25
REMARK   13  A    between atoms: _28  and  _30
REMARK   14  A    between atoms: _30  and  _31
REMARK   15  A    between atoms: _33  and  _35
REMARK   16  A    between atoms: _35  and  _36
REMARK   17  A    between atoms: _35  and  _38
REMARK   18  A    between atoms: _38  and  _39
REMARK   19  A    between atoms: _42  and  _44
REMARK   20  A    between atoms: _44  and  _45
REMARK   21  A    between atoms: _44  and  _47
REMARK   22  A    between atoms: _47  and  _48
REMARK   23  A    between atoms: _51  and  _53
REMARK   24  A    between atoms: _53  and  _54
REMARK   25  A    between atoms: _56  and  _58
REMARK   26  A    between atoms: _58  and  _59
REMARK   27  A    between atoms: _58  and  _61
REMARK   28  A    between atoms: _61  and  _62
REMARK   29  A    between atoms: _65  and  _67
REMARK   30  A    between atoms: _67  and  _68
REMARK   31  A    between atoms: _70  and  _72
REMARK   32  A    between atoms: _72  and  _73
REMARK   33  A    between atoms: _72  and  _75
REMARK   34  A    between atoms: _75  and  _76
REMARK   35  A    between atoms: _79  and  _81
REMARK   36  A    between atoms: _81  and  _82
REMARK   37  A    between atoms: _84  and  _86
REMARK   38  A    between atoms: _86  and  _87
REMARK   39  A    between atoms: _86  and  _89
REMARK   40  A    between atoms: _89  and  _90
REMARK   41  A    between atoms: _92  and  _94
REMARK   42  A    between atoms: _94  and  _95
REMARK   43  A    between atoms: _97  and  _99
REMARK   44  A    between atoms: _99  and  _100
REMARK   45  A    between atoms: _99  and  _102
REMARK   46  A    between atoms: _102  and  _103
REMARK   47  A    between atoms: _106  and  _108
REMARK   48  A    between atoms: _108  and  _109
REMARK   49  A    between atoms: _108  and  _111
REMARK   50  A    between atoms: _111  and  _112
REMARK   51  A    between atoms: _123  and  _124
REMARK   52  A    between atoms: _129  and  _131
REMARK   53  A    between atoms: _131  and  _132
REMARK   54  A    between atoms: _131  and  _134
REMARK   55  A    between atoms: _134  and  _135
REMARK   56  A    between atoms: _140  and  _142
REMARK   57  A    between atoms: _142  and  _143
REMARK   58  A    between atoms: _142  and  _145
REMARK   59  A    between atoms: _145  and  _146
REMARK   60  A    between atoms: _151  and  _153
REMARK   61  A    between atoms: _153  and  _154
REMARK   62  A    between atoms: _153  and  _156
REMARK   63  A    between atoms: _156  and  _157
REMARK   64  A    between atoms: _163  and  _164
REMARK   65  A    between atoms: _169  and  _171
REMARK   66  A    between atoms: _171  and  _172
REMARK   67  A    between atoms: _175  and  _177
REMARK   68  A    between atoms: _177  and  _178
REMARK   69  A    between atoms: _177  and  _180
REMARK   70  A    between atoms: _180  and  _181
REMARK   71  A    between atoms: _186  and  _187
REMARK   72  A    between atoms: _189  and  _191
REMARK   73  A    between atoms: _191  and  _192
REMARK   74  A    between atoms: _191  and  _194
REMARK   75  A    between atoms: _194  and  _195
REMARK   76  A    between atoms: _197  and  _199
REMARK   77  A    between atoms: _199  and  _200
REMARK   78  A    between atoms: _199  and  _202
REMARK   79  A    between atoms: _202  and  _203
REMARK   80  A    between atoms: _210  and  _211
REMARK   81  A    between atoms: _211  and  _227
REMARK   82  A    between atoms: _212  and  _214
REMARK   83  A    between atoms: _214  and  _215
REMARK   84  A    between atoms: _215  and  _216
REMARK   85  A    between atoms: _220  and  _222
REMARK   86  A    between atoms: _222  and  _223
REMARK   87  A    between atoms: _222  and  _230
REMARK   88  A    between atoms: _223  and  _224
REMARK   89  A    between atoms: _224  and  _225
REMARK   90  A    between atoms: _225  and  _226
REMARK   91  A    between atoms: _226  and  _227
REMARK   92  A    between atoms: _232  and  _234
REMARK   93  A    between atoms: _234  and  _235
REMARK   94  A    between atoms: _234  and  _237
REMARK   95  A    between atoms: _237  and  _238
REMARK   96  A    between atoms: _243  and  _244
REMARK   97  A    between atoms: _246  and  _248
REMARK   98  A    between atoms: _248  and  _249
REMARK   99  A    between atoms: _248  and  _251
REMARK  100  A    between atoms: _251  and  _252
REMARK  101  A    between atoms: _252  and  _253
REMARK  102  A    between atoms: _253  and  _254
REMARK  103  A    between atoms: _263  and  _265
REMARK  104  A    between atoms: _265  and  _266
REMARK  105  A    between atoms: _265  and  _268
REMARK  106  A    between atoms: _268  and  _269
REMARK  107  A    between atoms: _269  and  _270
REMARK  108  A    between atoms: _272  and  _274
REMARK  109  A    between atoms: _274  and  _275
REMARK  110  A    between atoms: _274  and  _277
REMARK  111  A    between atoms: _277  and  _278
REMARK  112  A    between atoms: _284  and  _286
REMARK  113  A    between atoms: _286  and  _287
REMARK  114  A    between atoms: _286  and  _289
REMARK  115  A    between atoms: _292  and  _294
REMARK  116  A    between atoms: _294  and  _295
REMARK  117  A    between atoms: _294  and  _297
REMARK  118  A    between atoms: _297  and  _298
REMARK  119  A    between atoms: _298  and  _299
REMARK  120  A    between atoms: _299  and  _300
REMARK  121  A    between atoms: _309  and  _311
REMARK  122  A    between atoms: _311  and  _312
REMARK  123  A    between atoms: _311  and  _314
REMARK  124  A    between atoms: _314  and  _315
REMARK  125  A    between atoms: _320  and  _322
REMARK  126  A    between atoms: _322  and  _323
REMARK  127  A    between atoms: _322  and  _325
REMARK  128  A    between atoms: _325  and  _326
REMARK  129  A    between atoms: _331  and  _332
REMARK  130  A    between atoms: _334  and  _336
REMARK  131  A    between atoms: _336  and  _337
REMARK  132  A    between atoms: _336  and  _339
REMARK  133  A    between atoms: _339  and  _340
REMARK  134  A    between atoms: _340  and  _341
REMARK  135  A    between atoms: _341  and  _342
REMARK  136  A    between atoms: _351  and  _353
REMARK  137  A    between atoms: _353  and  _354
REMARK  138  A    between atoms: _353  and  _356
REMARK  139  A    between atoms: _356  and  _357
REMARK  140  A    between atoms: _362  and  _363
REMARK  141  A    between atoms: _365  and  _367
REMARK  142  A    between atoms: _367  and  _368
REMARK  143  A    between atoms: _367  and  _370
REMARK  144  A    between atoms: _370  and  _371
REMARK  145  A    between atoms: _373  and  _375
REMARK  146  A    between atoms: _375  and  _376
REMARK  147  A    between atoms: _375  and  _378
REMARK  148  A    between atoms: _378  and  _379
REMARK                            x       y       z     vdW  Elec       q    Type
REMARK                         _______ _______ _______ _____ _____    ______ ____
ROOT
ATOM      1  O   HOH     1      73.745  48.114  32.227  0.00  0.00    +0.000 OA
ENDROOT
TORSDOF 0
REMARK  Name = ../refined-set-2016/1toi/1toi_pocket.pdb
REMARK  148 active torsions:
REMARK  status: ('A' for Active; 'I' for Inactive)
REMARK    1  A    between atoms: _1  and  _3
REMARK    2  A    between atoms: _3  and  _4
REMARK    3  A    between atoms: _3  and  _6
REMARK    4  A    between atoms: _6  and  _7
REMARK    5  A    between atoms: _10  and  _12
REMARK    6  A    between atoms: _12  and  _13
REMARK    7  A    between atoms: _12  and  _15
REMARK    8  A    between atoms: _15  and  _16
REMARK    9  A    between atoms: _19  and  _21
REMARK   10  A    between atoms: _21  and  _22
REMARK   11  A    between atoms: _21  and  _24
REMARK   12  A    between atoms: _24  and  _25
REMARK   13  A    between atoms: _28  and  _30
REMARK   14  A    between atoms: _30  and  _31
REMARK   15  A    between atoms: _33  and  _35
REMARK   16  A    between atoms: _35  and  _36
REMARK   17  A    between atoms: _35  and  _38
REMARK   18  A    between atoms: _38  and  _39
REMARK   19  A    between atoms: _42  and  _44
REMARK   20  A    between atoms: _44  and  _45
REMARK   21  A    between atoms: _44  and  _47
REMARK   22  A    between atoms: _47  and  _48
REMARK   23  A    between atoms: _51  and  _53
REMARK   24  A    between atoms: _53  and  _54
REMARK   25  A    between atoms: _56  and  _58
REMARK   26  A    between atoms: _58  and  _59
REMARK   27  A    between atoms: _58  and  _61
REMARK   28  A    between atoms: _61  and  _62
REMARK   29  A    between atoms: _65  and  _67
REMARK   30  A    between atoms: _67  and  _68
REMARK   31  A    between atoms: _70  and  _72
REMARK   32  A    between atoms: _72  and  _73
REMARK   33  A    between atoms: _72  and  _75
REMARK   34  A    between atoms: _75  and  _76
REMARK   35  A    between atoms: _79  and  _81
REMARK   36  A    between atoms: _81  and  _82
REMARK   37  A    between atoms: _84  and  _86
REMARK   38  A    between atoms: _86  and  _87
REMARK   39  A    between atoms: _86  and  _89
REMARK   40  A    between atoms: _89  and  _90
REMARK   41  A    between atoms: _92  and  _94
REMARK   42  A    between atoms: _94  and  _95
REMARK   43  A    between atoms: _97  and  _99
REMARK   44  A    between atoms: _99  and  _100
REMARK   45  A    between atoms: _99  and  _102
REMARK   46  A    between atoms: _102  and  _103
REMARK   47  A    between atoms: _106  and  _108
REMARK   48  A    between atoms: _108  and  _109
REMARK   49  A    between atoms: _108  and  _111
REMARK   50  A    between atoms: _111  and  _112
REMARK   51  A    between atoms: _123  and  _124
REMARK   52  A    between atoms: _129  and  _131
REMARK   53  A    between atoms: _131  and  _132
REMARK   54  A    between atoms: _131  and  _134
REMARK   55  A    between atoms: _134  and  _135
REMARK   56  A    between atoms: _140  and  _142
REMARK   57  A    between atoms: _142  and  _143
REMARK   58  A    between atoms: _142  and  _145
REMARK   59  A    between atoms: _145  and  _146
REMARK   60  A    between atoms: _151  and  _153
REMARK   61  A    between atoms: _153  and  _154
REMARK   62  A    between atoms: _153  and  _156
REMARK   63  A    between atoms: _156  and  _157
REMARK   64  A    between atoms: _163  and  _164
REMARK   65  A    between atoms: _169  and  _171
REMARK   66  A    between atoms: _171  and  _172
REMARK   67  A    between atoms: _175  and  _177
REMARK   68  A    between atoms: _177  and  _178
REMARK   69  A    between atoms: _177  and  _180
REMARK   70  A    between atoms: _180  and  _181
REMARK   71  A    between atoms: _186  and  _187
REMARK   72  A    between atoms: _189  and  _191
REMARK   73  A    between atoms: _191  and  _192
REMARK   74  A    between atoms: _191  and  _194
REMARK   75  A    between atoms: _194  and  _195
REMARK   76  A    between atoms: _197  and  _199
REMARK   77  A    between atoms: _199  and  _200
REMARK   78  A    between atoms: _199  and  _202
REMARK   79  A    between atoms: _202  and  _203
REMARK   80  A    between atoms: _210  and  _211
REMARK   81  A    between atoms: _211  and  _227
REMARK   82  A    between atoms: _212  and  _214
REMARK   83  A    between atoms: _214  and  _215
REMARK   84  A    between atoms: _215  and  _216
REMARK   85  A    between atoms: _220  and  _222
REMARK   86  A    between atoms: _222  and  _223
REMARK   87  A    between atoms: _222  and  _230
REMARK   88  A    between atoms: _223  and  _224
REMARK   89  A    between atoms: _224  and  _225
REMARK   90  A    between atoms: _225  and  _226
REMARK   91  A    between atoms: _226  and  _227
REMARK   92  A    between atoms: _232  and  _234
REMARK   93  A    between atoms: _234  and  _235
REMARK   94  A    between atoms: _234  and  _237
REMARK   95  A    between atoms: _237  and  _238
REMARK   96  A    between atoms: _243  and  _244
REMARK   97  A    between atoms: _246  and  _248
REMARK   98  A    between atoms: _248  and  _249
REMARK   99  A    between atoms: _248  and  _251
REMARK  100  A    between atoms: _251  and  _252
REMARK  101  A    between atoms: _252  and  _253
REMARK  102  A    between atoms: _253  and  _254
REMARK  103  A    between atoms: _263  and  _265
REMARK  104  A    between atoms: _265  and  _266
REMARK  105  A    between atoms: _265  and  _268
REMARK  106  A    between atoms: _268  and  _269
REMARK  107  A    between atoms: _269  and  _270
REMARK  108  A    between atoms: _272  and  _274
REMARK  109  A    between atoms: _274  and  _275
REMARK  110  A    between atoms: _274  and  _277
REMARK  111  A    between atoms: _277  and  _278
REMARK  112  A    between atoms: _284  and  _286
REMARK  113  A    between atoms: _286  and  _287
REMARK  114  A    between atoms: _286  and  _289
REMARK  115  A    between atoms: _292  and  _294
REMARK  116  A    between atoms: _294  and  _295
REMARK  117  A    between atoms: _294  and  _297
REMARK  118  A    between atoms: _297  and  _298
REMARK  119  A    between atoms: _298  and  _299
REMARK  120  A    between atoms: _299  and  _300
REMARK  121  A    between atoms: _309  and  _311
REMARK  122  A    between atoms: _311  and  _312
REMARK  123  A    between atoms: _311  and  _314
REMARK  124  A    between atoms: _314  and  _315
REMARK  125  A    between atoms: _320  and  _322
REMARK  126  A    between atoms: _322  and  _323
REMARK  127  A    between atoms: _322  and  _325
REMARK  128  A    between atoms: _325  and  _326
REMARK  129  A    between atoms: _331  and  _332
REMARK  130  A    between atoms: _334  and  _336
REMARK  131  A    between atoms: _336  and  _337
REMARK  132  A    between atoms: _336  and  _339
REMARK  133  A    between atoms: _339  and  _340
REMARK  134  A    between atoms: _340  and  _341
REMARK  135  A    between atoms: _341  and  _342
REMARK  136  A    between atoms: _351  and  _353
REMARK  137  A    between atoms: _353  and  _354
REMARK  138  A    between atoms: _353  and  _356
REMARK  139  A    between atoms: _356  and  _357
REMARK  140  A    between atoms: _362  and  _363
REMARK  141  A    between atoms: _365  and  _367
REMARK  142  A    between atoms: _367  and  _368
REMARK  143  A    between atoms: _367  and  _370
REMARK  144  A    between atoms: _370  and  _371
REMARK  145  A    between atoms: _373  and  _375
REMARK  146  A    between atoms: _375  and  _376
REMARK  147  A    between atoms: _375  and  _378
REMARK  148  A    between atoms: _378  and  _379
REMARK                            x       y       z     vdW  Elec       q    Type
REMARK                         _______ _______ _______ _____ _____    ______ ____
ROOT
ATOM      1  O   HOH     1      76.281  56.446  41.063  0.00  0.00    +0.000 OA
ENDROOT
TORSDOF 0
REMARK  Name = ../refined-set-2016/1toi/1toi_pocket.pdb
REMARK  148 active torsions:
REMARK  status: ('A' for Active; 'I' for Inactive)
REMARK    1  A    between atoms: _1  and  _3
REMARK    2  A    between atoms: _3  and  _4
REMARK    3  A    between atoms: _3  and  _6
REMARK    4  A    between atoms: _6  and  _7
REMARK    5  A    between atoms: _10  and  _12
REMARK    6  A    between atoms: _12  and  _13
REMARK    7  A    between atoms: _12  and  _15
REMARK    8  A    between atoms: _15  and  _16
REMARK    9  A    between atoms: _19  and  _21
REMARK   10  A    between atoms: _21  and  _22
REMARK   11  A    between atoms: _21  and  _24
REMARK   12  A    between atoms: _24  and  _25
REMARK   13  A    between atoms: _28  and  _30
REMARK   14  A    between atoms: _30  and  _31
REMARK   15  A    between atoms: _33  and  _35
REMARK   16  A    between atoms: _35  and  _36
REMARK   17  A    between atoms: _35  and  _38
REMARK   18  A    between atoms: _38  and  _39
REMARK   19  A    between atoms: _42  and  _44
REMARK   20  A    between atoms: _44  and  _45
REMARK   21  A    between atoms: _44  and  _47
REMARK   22  A    between atoms: _47  and  _48
REMARK   23  A    between atoms: _51  and  _53
REMARK   24  A    between atoms: _53  and  _54
REMARK   25  A    between atoms: _56  and  _58
REMARK   26  A    between atoms: _58  and  _59
REMARK   27  A    between atoms: _58  and  _61
REMARK   28  A    between atoms: _61  and  _62
REMARK   29  A    between atoms: _65  and  _67
REMARK   30  A    between atoms: _67  and  _68
REMARK   31  A    between atoms: _70  and  _72
REMARK   32  A    between atoms: _72  and  _73
REMARK   33  A    between atoms: _72  and  _75
REMARK   34  A    between atoms: _75  and  _76
REMARK   35  A    between atoms: _79  and  _81
REMARK   36  A    between atoms: _81  and  _82
REMARK   37  A    between atoms: _84  and  _86
REMARK   38  A    between atoms: _86  and  _87
REMARK   39  A    between atoms: _86  and  _89
REMARK   40  A    between atoms: _89  and  _90
REMARK   41  A    between atoms: _92  and  _94
REMARK   42  A    between atoms: _94  and  _95
REMARK   43  A    between atoms: _97  and  _99
REMARK   44  A    between atoms: _99  and  _100
REMARK   45  A    between atoms: _99  and  _102
REMARK   46  A    between atoms: _102  and  _103
REMARK   47  A    between atoms: _106  and  _108
REMARK   48  A    between atoms: _108  and  _109
REMARK   49  A    between atoms: _108  and  _111
REMARK   50  A    between atoms: _111  and  _112
REMARK   51  A    between atoms: _123  and  _124
REMARK   52  A    between atoms: _129  and  _131
REMARK   53  A    between atoms: _131  and  _132
REMARK   54  A    between atoms: _131  and  _134
REMARK   55  A    between atoms: _134  and  _135
REMARK   56  A    between atoms: _140  and  _142
REMARK   57  A    between atoms: _142  and  _143
REMARK   58  A    between atoms: _142  and  _145
REMARK   59  A    between atoms: _145  and  _146
REMARK   60  A    between atoms: _151  and  _153
REMARK   61  A    between atoms: _153  and  _154
REMARK   62  A    between atoms: _153  and  _156
REMARK   63  A    between atoms: _156  and  _157
REMARK   64  A    between atoms: _163  and  _164
REMARK   65  A    between atoms: _169  and  _171
REMARK   66  A    between atoms: _171  and  _172
REMARK   67  A    between atoms: _175  and  _177
REMARK   68  A    between atoms: _177  and  _178
REMARK   69  A    between atoms: _177  and  _180
REMARK   70  A    between atoms: _180  and  _181
REMARK   71  A    between atoms: _186  and  _187
REMARK   72  A    between atoms: _189  and  _191
REMARK   73  A    between atoms: _191  and  _192
REMARK   74  A    between atoms: _191  and  _194
REMARK   75  A    between atoms: _194  and  _195
REMARK   76  A    between atoms: _197  and  _199
REMARK   77  A    between atoms: _199  and  _200
REMARK   78  A    between atoms: _199  and  _202
REMARK   79  A    between atoms: _202  and  _203
REMARK   80  A    between atoms: _210  and  _211
REMARK   81  A    between atoms: _211  and  _227
REMARK   82  A    between atoms: _212  and  _214
REMARK   83  A    between atoms: _214  and  _215
REMARK   84  A    between atoms: _215  and  _216
REMARK   85  A    between atoms: _220  and  _222
REMARK   86  A    between atoms: _222  and  _223
REMARK   87  A    between atoms: _222  and  _230
REMARK   88  A    between atoms: _223  and  _224
REMARK   89  A    between atoms: _224  and  _225
REMARK   90  A    between atoms: _225  and  _226
REMARK   91  A    between atoms: _226  and  _227
REMARK   92  A    between atoms: _232  and  _234
REMARK   93  A    between atoms: _234  and  _235
REMARK   94  A    between atoms: _234  and  _237
REMARK   95  A    between atoms: _237  and  _238
REMARK   96  A    between atoms: _243  and  _244
REMARK   97  A    between atoms: _246  and  _248
REMARK   98  A    between atoms: _248  and  _249
REMARK   99  A    between atoms: _248  and  _251
REMARK  100  A    between atoms: _251  and  _252
REMARK  101  A    between atoms: _252  and  _253
REMARK  102  A    between atoms: _253  and  _254
REMARK  103  A    between atoms: _263  and  _265
REMARK  104  A    between atoms: _265  and  _266
REMARK  105  A    between atoms: _265  and  _268
REMARK  106  A    between atoms: _268  and  _269
REMARK  107  A    between atoms: _269  and  _270
REMARK  108  A    between atoms: _272  and  _274
REMARK  109  A    between atoms: _274  and  _275
REMARK  110  A    between atoms: _274  and  _277
REMARK  111  A    between atoms: _277  and  _278
REMARK  112  A    between atoms: _284  and  _286
REMARK  113  A    between atoms: _286  and  _287
REMARK  114  A    between atoms: _286  and  _289
REMARK  115  A    between atoms: _292  and  _294
REMARK  116  A    between atoms: _294  and  _295
REMARK  117  A    between atoms: _294  and  _297
REMARK  118  A    between atoms: _297  and  _298
REMARK  119  A    between atoms: _298  and  _299
REMARK  120  A    between atoms: _299  and  _300
REMARK  121  A    between atoms: _309  and  _311
REMARK  122  A    between atoms: _311  and  _312
REMARK  123  A    between atoms: _311  and  _314
REMARK  124  A    between atoms: _314  and  _315
REMARK  125  A    between atoms: _320  and  _322
REMARK  126  A    between atoms: _322  and  _323
REMARK  127  A    between atoms: _322  and  _325
REMARK  128  A    between atoms: _325  and  _326
REMARK  129  A    between atoms: _331  and  _332
REMARK  130  A    between atoms: _334  and  _336
REMARK  131  A    between atoms: _336  and  _337
REMARK  132  A    between atoms: _336  and  _339
REMARK  133  A    between atoms: _339  and  _340
REMARK  134  A    between atoms: _340  and  _341
REMARK  135  A    between atoms: _341  and  _342
REMARK  136  A    between atoms: _351  and  _353
REMARK  137  A    between atoms: _353  and  _354
REMARK  138  A    between atoms: _353  and  _356
REMARK  139  A    between atoms: _356  and  _357
REMARK  140  A    between atoms: _362  and  _363
REMARK  141  A    between atoms: _365  and  _367
REMARK  142  A    between atoms: _367  and  _368
REMARK  143  A    between atoms: _367  and  _370
REMARK  144  A    between atoms: _370  and  _371
REMARK  145  A    between atoms: _373  and  _375
REMARK  146  A    between atoms: _375  and  _376
REMARK  147  A    between atoms: _375  and  _378
REMARK  148  A    between atoms: _378  and  _379
REMARK                            x       y       z     vdW  Elec       q    Type
REMARK                         _______ _______ _______ _____ _____    ______ ____
ROOT
ATOM      1  O   HOH     1      72.487  48.566  37.677  0.00  0.00    +0.000 OA
ENDROOT
TORSDOF 0
REMARK  Name = ../refined-set-2016/1toi/1toi_pocket.pdb
REMARK  148 active torsions:
REMARK  status: ('A' for Active; 'I' for Inactive)
REMARK    1  A    between atoms: _1  and  _3
REMARK    2  A    between atoms: _3  and  _4
REMARK    3  A    between atoms: _3  and  _6
REMARK    4  A    between atoms: _6  and  _7
REMARK    5  A    between atoms: _10  and  _12
REMARK    6  A    between atoms: _12  and  _13
REMARK    7  A    between atoms: _12  and  _15
REMARK    8  A    between atoms: _15  and  _16
REMARK    9  A    between atoms: _19  and  _21
REMARK   10  A    between atoms: _21  and  _22
REMARK   11  A    between atoms: _21  and  _24
REMARK   12  A    between atoms: _24  and  _25
REMARK   13  A    between atoms: _28  and  _30
REMARK   14  A    between atoms: _30  and  _31
REMARK   15  A    between atoms: _33  and  _35
REMARK   16  A    between atoms: _35  and  _36
REMARK   17  A    between atoms: _35  and  _38
REMARK   18  A    between atoms: _38  and  _39
REMARK   19  A    between atoms: _42  and  _44
REMARK   20  A    between atoms: _44  and  _45
REMARK   21  A    between atoms: _44  and  _47
REMARK   22  A    between atoms: _47  and  _48
REMARK   23  A    between atoms: _51  and  _53
REMARK   24  A    between atoms: _53  and  _54
REMARK   25  A    between atoms: _56  and  _58
REMARK   26  A    between atoms: _58  and  _59
REMARK   27  A    between atoms: _58  and  _61
REMARK   28  A    between atoms: _61  and  _62
REMARK   29  A    between atoms: _65  and  _67
REMARK   30  A    between atoms: _67  and  _68
REMARK   31  A    between atoms: _70  and  _72
REMARK   32  A    between atoms: _72  and  _73
REMARK   33  A    between atoms: _72  and  _75
REMARK   34  A    between atoms: _75  and  _76
REMARK   35  A    between atoms: _79  and  _81
REMARK   36  A    between atoms: _81  and  _82
REMARK   37  A    between atoms: _84  and  _86
REMARK   38  A    between atoms: _86  and  _87
REMARK   39  A    between atoms: _86  and  _89
REMARK   40  A    between atoms: _89  and  _90
REMARK   41  A    between atoms: _92  and  _94
REMARK   42  A    between atoms: _94  and  _95
REMARK   43  A    between atoms: _97  and  _99
REMARK   44  A    between atoms: _99  and  _100
REMARK   45  A    between atoms: _99  and  _102
REMARK   46  A    between atoms: _102  and  _103
REMARK   47  A    between atoms: _106  and  _108
REMARK   48  A    between atoms: _108  and  _109
REMARK   49  A    between atoms: _108  and  _111
REMARK   50  A    between atoms: _111  and  _112
REMARK   51  A    between atoms: _123  and  _124
REMARK   52  A    between atoms: _129  and  _131
REMARK   53  A    between atoms: _131  and  _132
REMARK   54  A    between atoms: _131  and  _134
REMARK   55  A    between atoms: _134  and  _135
REMARK   56  A    between atoms: _140  and  _142
REMARK   57  A    between atoms: _142  and  _143
REMARK   58  A    between atoms: _142  and  _145
REMARK   59  A    between atoms: _145  and  _146
REMARK   60  A    between atoms: _151  and  _153
REMARK   61  A    between atoms: _153  and  _154
REMARK   62  A    between atoms: _153  and  _156
REMARK   63  A    between atoms: _156  and  _157
REMARK   64  A    between atoms: _163  and  _164
REMARK   65  A    between atoms: _169  and  _171
REMARK   66  A    between atoms: _171  and  _172
REMARK   67  A    between atoms: _175  and  _177
REMARK   68  A    between atoms: _177  and  _178
REMARK   69  A    between atoms: _177  and  _180
REMARK   70  A    between atoms: _180  and  _181
REMARK   71  A    between atoms: _186  and  _187
REMARK   72  A    between atoms: _189  and  _191
REMARK   73  A    between atoms: _191  and  _192
REMARK   74  A    between atoms: _191  and  _194
REMARK   75  A    between atoms: _194  and  _195
REMARK   76  A    between atoms: _197  and  _199
REMARK   77  A    between atoms: _199  and  _200
REMARK   78  A    between atoms: _199  and  _202
REMARK   79  A    between atoms: _202  and  _203
REMARK   80  A    between atoms: _210  and  _211
REMARK   81  A    between atoms: _211  and  _227
REMARK   82  A    between atoms: _212  and  _214
REMARK   83  A    between atoms: _214  and  _215
REMARK   84  A    between atoms: _215  and  _216
REMARK   85  A    between atoms: _220  and  _222
REMARK   86  A    between atoms: _222  and  _223
REMARK   87  A    between atoms: _222  and  _230
REMARK   88  A    between atoms: _223  and  _224
REMARK   89  A    between atoms: _224  and  _225
REMARK   90  A    between atoms: _225  and  _226
REMARK   91  A    between atoms: _226  and  _227
REMARK   92  A    between atoms: _232  and  _234
REMARK   93  A    between atoms: _234  and  _235
REMARK   94  A    between atoms: _234  and  _237
REMARK   95  A    between atoms: _237  and  _238
REMARK   96  A    between atoms: _243  and  _244
REMARK   97  A    between atoms: _246  and  _248
REMARK   98  A    between atoms: _248  and  _249
REMARK   99  A    between atoms: _248  and  _251
REMARK  100  A    between atoms: _251  and  _252
REMARK  101  A    between atoms: _252  and  _253
REMARK  102  A    between atoms: _253  and  _254
REMARK  103  A    between atoms: _263  and  _265
REMARK  104  A    between atoms: _265  and  _266
REMARK  105  A    between atoms: _265  and  _268
REMARK  106  A    between atoms: _268  and  _269
REMARK  107  A    between atoms: _269  and  _270
REMARK  108  A    between atoms: _272  and  _274
REMARK  109  A    between atoms: _274  and  _275
REMARK  110  A    between atoms: _274  and  _277
REMARK  111  A    between atoms: _277  and  _278
REMARK  112  A    between atoms: _284  and  _286
REMARK  113  A    between atoms: _286  and  _287
REMARK  114  A    between atoms: _286  and  _289
REMARK  115  A    between atoms: _292  and  _294
REMARK  116  A    between atoms: _294  and  _295
REMARK  117  A    between atoms: _294  and  _297
REMARK  118  A    between atoms: _297  and  _298
REMARK  119  A    between atoms: _298  and  _299
REMARK  120  A    between atoms: _299  and  _300
REMARK  121  A    between atoms: _309  and  _311
REMARK  122  A    between atoms: _311  and  _312
REMARK  123  A    between atoms: _311  and  _314
REMARK  124  A    between atoms: _314  and  _315
REMARK  125  A    between atoms: _320  and  _322
REMARK  126  A    between atoms: _322  and  _323
REMARK  127  A    between atoms: _322  and  _325
REMARK  128  A    between atoms: _325  and  _326
REMARK  129  A    between atoms: _331  and  _332
REMARK  130  A    between atoms: _334  and  _336
REMARK  131  A    between atoms: _336  and  _337
REMARK  132  A    between atoms: _336  and  _339
REMARK  133  A    between atoms: _339  and  _340
REMARK  134  A    between atoms: _340  and  _341
REMARK  135  A    between atoms: _341  and  _342
REMARK  136  A    between atoms: _351  and  _353
REMARK  137  A    between atoms: _353  and  _354
REMARK  138  A    between atoms: _353  and  _356
REMARK  139  A    between atoms: _356  and  _357
REMARK  140  A    between atoms: _362  and  _363
REMARK  141  A    between atoms: _365  and  _367
REMARK  142  A    between atoms: _367  and  _368
REMARK  143  A    between atoms: _367  and  _370
REMARK  144  A    between atoms: _370  and  _371
REMARK  145  A    between atoms: _373  and  _375
REMARK  146  A    between atoms: _375  and  _376
REMARK  147  A    between atoms: _375  and  _378
REMARK  148  A    between atoms: _378  and  _379
REMARK                            x       y       z     vdW  Elec       q    Type
REMARK                         _______ _______ _______ _____ _____    ______ ____
ROOT
ATOM      1  O   HOH     1      75.852  53.896  41.479  0.00  0.00    +0.000 OA
ENDROOT
TORSDOF 0
REMARK  Name = ../refined-set-2016/1toi/1toi_pocket.pdb
REMARK  148 active torsions:
REMARK  status: ('A' for Active; 'I' for Inactive)
REMARK    1  A    between atoms: _1  and  _3
REMARK    2  A    between atoms: _3  and  _4
REMARK    3  A    between atoms: _3  and  _6
REMARK    4  A    between atoms: _6  and  _7
REMARK    5  A    between atoms: _10  and  _12
REMARK    6  A    between atoms: _12  and  _13
REMARK    7  A    between atoms: _12  and  _15
REMARK    8  A    between atoms: _15  and  _16
REMARK    9  A    between atoms: _19  and  _21
REMARK   10  A    between atoms: _21  and  _22
REMARK   11  A    between atoms: _21  and  _24
REMARK   12  A    between atoms: _24  and  _25
REMARK   13  A    between atoms: _28  and  _30
REMARK   14  A    between atoms: _30  and  _31
REMARK   15  A    between atoms: _33  and  _35
REMARK   16  A    between atoms: _35  and  _36
REMARK   17  A    between atoms: _35  and  _38
REMARK   18  A    between atoms: _38  and  _39
REMARK   19  A    between atoms: _42  and  _44
REMARK   20  A    between atoms: _44  and  _45
REMARK   21  A    between atoms: _44  and  _47
REMARK   22  A    between atoms: _47  and  _48
REMARK   23  A    between atoms: _51  and  _53
REMARK   24  A    between atoms: _53  and  _54
REMARK   25  A    between atoms: _56  and  _58
REMARK   26  A    between atoms: _58  and  _59
REMARK   27  A    between atoms: _58  and  _61
REMARK   28  A    between atoms: _61  and  _62
REMARK   29  A    between atoms: _65  and  _67
REMARK   30  A    between atoms: _67  and  _68
REMARK   31  A    between atoms: _70  and  _72
REMARK   32  A    between atoms: _72  and  _73
REMARK   33  A    between atoms: _72  and  _75
REMARK   34  A    between atoms: _75  and  _76
REMARK   35  A    between atoms: _79  and  _81
REMARK   36  A    between atoms: _81  and  _82
REMARK   37  A    between atoms: _84  and  _86
REMARK   38  A    between atoms: _86  and  _87
REMARK   39  A    between atoms: _86  and  _89
REMARK   40  A    between atoms: _89  and  _90
REMARK   41  A    between atoms: _92  and  _94
REMARK   42  A    between atoms: _94  and  _95
REMARK   43  A    between atoms: _97  and  _99
REMARK   44  A    between atoms: _99  and  _100
REMARK   45  A    between atoms: _99  and  _102
REMARK   46  A    between atoms: _102  and  _103
REMARK   47  A    between atoms: _106  and  _108
REMARK   48  A    between atoms: _108  and  _109
REMARK   49  A    between atoms: _108  and  _111
REMARK   50  A    between atoms: _111  and  _112
REMARK   51  A    between atoms: _123  and  _124
REMARK   52  A    between atoms: _129  and  _131
REMARK   53  A    between atoms: _131  and  _132
REMARK   54  A    between atoms: _131  and  _134
REMARK   55  A    between atoms: _134  and  _135
REMARK   56  A    between atoms: _140  and  _142
REMARK   57  A    between atoms: _142  and  _143
REMARK   58  A    between atoms: _142  and  _145
REMARK   59  A    between atoms: _145  and  _146
REMARK   60  A    between atoms: _151  and  _153
REMARK   61  A    between atoms: _153  and  _154
REMARK   62  A    between atoms: _153  and  _156
REMARK   63  A    between atoms: _156  and  _157
REMARK   64  A    between atoms: _163  and  _164
REMARK   65  A    between atoms: _169  and  _171
REMARK   66  A    between atoms: _171  and  _172
REMARK   67  A    between atoms: _175  and  _177
REMARK   68  A    between atoms: _177  and  _178
REMARK   69  A    between atoms: _177  and  _180
REMARK   70  A    between atoms: _180  and  _181
REMARK   71  A    between atoms: _186  and  _187
REMARK   72  A    between atoms: _189  and  _191
REMARK   73  A    between atoms: _191  and  _192
REMARK   74  A    between atoms: _191  and  _194
REMARK   75  A    between atoms: _194  and  _195
REMARK   76  A    between atoms: _197  and  _199
REMARK   77  A    between atoms: _199  and  _200
REMARK   78  A    between atoms: _199  and  _202
REMARK   79  A    between atoms: _202  and  _203
REMARK   80  A    between atoms: _210  and  _211
REMARK   81  A    between atoms: _211  and  _227
REMARK   82  A    between atoms: _212  and  _214
REMARK   83  A    between atoms: _214  and  _215
REMARK   84  A    between atoms: _215  and  _216
REMARK   85  A    between atoms: _220  and  _222
REMARK   86  A    between atoms: _222  and  _223
REMARK   87  A    between atoms: _222  and  _230
REMARK   88  A    between atoms: _223  and  _224
REMARK   89  A    between atoms: _224  and  _225
REMARK   90  A    between atoms: _225  and  _226
REMARK   91  A    between atoms: _226  and  _227
REMARK   92  A    between atoms: _232  and  _234
REMARK   93  A    between atoms: _234  and  _235
REMARK   94  A    between atoms: _234  and  _237
REMARK   95  A    between atoms: _237  and  _238
REMARK   96  A    between atoms: _243  and  _244
REMARK   97  A    between atoms: _246  and  _248
REMARK   98  A    between atoms: _248  and  _249
REMARK   99  A    between atoms: _248  and  _251
REMARK  100  A    between atoms: _251  and  _252
REMARK  101  A    between atoms: _252  and  _253
REMARK  102  A    between atoms: _253  and  _254
REMARK  103  A    between atoms: _263  and  _265
REMARK  104  A    between atoms: _265  and  _266
REMARK  105  A    between atoms: _265  and  _268
REMARK  106  A    between atoms: _268  and  _269
REMARK  107  A    between atoms: _269  and  _270
REMARK  108  A    between atoms: _272  and  _274
REMARK  109  A    between atoms: _274  and  _275
REMARK  110  A    between atoms: _274  and  _277
REMARK  111  A    between atoms: _277  and  _278
REMARK  112  A    between atoms: _284  and  _286
REMARK  113  A    between atoms: _286  and  _287
REMARK  114  A    between atoms: _286  and  _289
REMARK  115  A    between atoms: _292  and  _294
REMARK  116  A    between atoms: _294  and  _295
REMARK  117  A    between atoms: _294  and  _297
REMARK  118  A    between atoms: _297  and  _298
REMARK  119  A    between atoms: _298  and  _299
REMARK  120  A    between atoms: _299  and  _300
REMARK  121  A    between atoms: _309  and  _311
REMARK  122  A    between atoms: _311  and  _312
REMARK  123  A    between atoms: _311  and  _314
REMARK  124  A    between atoms: _314  and  _315
REMARK  125  A    between atoms: _320  and  _322
REMARK  126  A    between atoms: _322  and  _323
REMARK  127  A    between atoms: _322  and  _325
REMARK  128  A    between atoms: _325  and  _326
REMARK  129  A    between atoms: _331  and  _332
REMARK  130  A    between atoms: _334  and  _336
REMARK  131  A    between atoms: _336  and  _337
REMARK  132  A    between atoms: _336  and  _339
REMARK  133  A    between atoms: _339  and  _340
REMARK  134  A    between atoms: _340  and  _341
REMARK  135  A    between atoms: _341  and  _342
REMARK  136  A    between atoms: _351  and  _353
REMARK  137  A    between atoms: _353  and  _354
REMARK  138  A    between atoms: _353  and  _356
REMARK  139  A    between atoms: _356  and  _357
REMARK  140  A    between atoms: _362  and  _363
REMARK  141  A    between atoms: _365  and  _367
REMARK  142  A    between atoms: _367  and  _368
REMARK  143  A    between atoms: _367  and  _370
REMARK  144  A    between atoms: _370  and  _371
REMARK  145  A    between atoms: _373  and  _375
REMARK  146  A    between atoms: _375  and  _376
REMARK  147  A    between atoms: _375  and  _378
REMARK  148  A    between atoms: _378  and  _379
REMARK                            x       y       z     vdW  Elec       q    Type
REMARK                         _______ _______ _______ _____ _____    ______ ____
ROOT
ATOM      1  O   HOH     1      65.705  57.044  31.624  0.00  0.00    +0.000 OA
ENDROOT
TORSDOF 0
REMARK  Name = ../refined-set-2016/1toi/1toi_pocket.pdb
REMARK  148 active torsions:
REMARK  status: ('A' for Active; 'I' for Inactive)
REMARK    1  A    between atoms: _1  and  _3
REMARK    2  A    between atoms: _3  and  _4
REMARK    3  A    between atoms: _3  and  _6
REMARK    4  A    between atoms: _6  and  _7
REMARK    5  A    between atoms: _10  and  _12
REMARK    6  A    between atoms: _12  and  _13
REMARK    7  A    between atoms: _12  and  _15
REMARK    8  A    between atoms: _15  and  _16
REMARK    9  A    between atoms: _19  and  _21
REMARK   10  A    between atoms: _21  and  _22
REMARK   11  A    between atoms: _21  and  _24
REMARK   12  A    between atoms: _24  and  _25
REMARK   13  A    between atoms: _28  and  _30
REMARK   14  A    between atoms: _30  and  _31
REMARK   15  A    between atoms: _33  and  _35
REMARK   16  A    between atoms: _35  and  _36
REMARK   17  A    between atoms: _35  and  _38
REMARK   18  A    between atoms: _38  and  _39
REMARK   19  A    between atoms: _42  and  _44
REMARK   20  A    between atoms: _44  and  _45
REMARK   21  A    between atoms: _44  and  _47
REMARK   22  A    between atoms: _47  and  _48
REMARK   23  A    between atoms: _51  and  _53
REMARK   24  A    between atoms: _53  and  _54
REMARK   25  A    between atoms: _56  and  _58
REMARK   26  A    between atoms: _58  and  _59
REMARK   27  A    between atoms: _58  and  _61
REMARK   28  A    between atoms: _61  and  _62
REMARK   29  A    between atoms: _65  and  _67
REMARK   30  A    between atoms: _67  and  _68
REMARK   31  A    between atoms: _70  and  _72
REMARK   32  A    between atoms: _72  and  _73
REMARK   33  A    between atoms: _72  and  _75
REMARK   34  A    between atoms: _75  and  _76
REMARK   35  A    between atoms: _79  and  _81
REMARK   36  A    between atoms: _81  and  _82
REMARK   37  A    between atoms: _84  and  _86
REMARK   38  A    between atoms: _86  and  _87
REMARK   39  A    between atoms: _86  and  _89
REMARK   40  A    between atoms: _89  and  _90
REMARK   41  A    between atoms: _92  and  _94
REMARK   42  A    between atoms: _94  and  _95
REMARK   43  A    between atoms: _97  and  _99
REMARK   44  A    between atoms: _99  and  _100
REMARK   45  A    between atoms: _99  and  _102
REMARK   46  A    between atoms: _102  and  _103
REMARK   47  A    between atoms: _106  and  _108
REMARK   48  A    between atoms: _108  and  _109
REMARK   49  A    between atoms: _108  and  _111
REMARK   50  A    between atoms: _111  and  _112
REMARK   51  A    between atoms: _123  and  _124
REMARK   52  A    between atoms: _129  and  _131
REMARK   53  A    between atoms: _131  and  _132
REMARK   54  A    between atoms: _131  and  _134
REMARK   55  A    between atoms: _134  and  _135
REMARK   56  A    between atoms: _140  and  _142
REMARK   57  A    between atoms: _142  and  _143
REMARK   58  A    between atoms: _142  and  _145
REMARK   59  A    between atoms: _145  and  _146
REMARK   60  A    between atoms: _151  and  _153
REMARK   61  A    between atoms: _153  and  _154
REMARK   62  A    between atoms: _153  and  _156
REMARK   63  A    between atoms: _156  and  _157
REMARK   64  A    between atoms: _163  and  _164
REMARK   65  A    between atoms: _169  and  _171
REMARK   66  A    between atoms: _171  and  _172
REMARK   67  A    between atoms: _175  and  _177
REMARK   68  A    between atoms: _177  and  _178
REMARK   69  A    between atoms: _177  and  _180
REMARK   70  A    between atoms: _180  and  _181
REMARK   71  A    between atoms: _186  and  _187
REMARK   72  A    between atoms: _189  and  _191
REMARK   73  A    between atoms: _191  and  _192
REMARK   74  A    between atoms: _191  and  _194
REMARK   75  A    between atoms: _194  and  _195
REMARK   76  A    between atoms: _197  and  _199
REMARK   77  A    between atoms: _199  and  _200
REMARK   78  A    between atoms: _199  and  _202
REMARK   79  A    between atoms: _202  and  _203
REMARK   80  A    between atoms: _210  and  _211
REMARK   81  A    between atoms: _211  and  _227
REMARK   82  A    between atoms: _212  and  _214
REMARK   83  A    between atoms: _214  and  _215
REMARK   84  A    between atoms: _215  and  _216
REMARK   85  A    between atoms: _220  and  _222
REMARK   86  A    between atoms: _222  and  _223
REMARK   87  A    between atoms: _222  and  _230
REMARK   88  A    between atoms: _223  and  _224
REMARK   89  A    between atoms: _224  and  _225
REMARK   90  A    between atoms: _225  and  _226
REMARK   91  A    between atoms: _226  and  _227
REMARK   92  A    between atoms: _232  and  _234
REMARK   93  A    between atoms: _234  and  _235
REMARK   94  A    between atoms: _234  and  _237
REMARK   95  A    between atoms: _237  and  _238
REMARK   96  A    between atoms: _243  and  _244
REMARK   97  A    between atoms: _246  and  _248
REMARK   98  A    between atoms: _248  and  _249
REMARK   99  A    between atoms: _248  and  _251
REMARK  100  A    between atoms: _251  and  _252
REMARK  101  A    between atoms: _252  and  _253
REMARK  102  A    between atoms: _253  and  _254
REMARK  103  A    between atoms: _263  and  _265
REMARK  104  A    between atoms: _265  and  _266
REMARK  105  A    between atoms: _265  and  _268
REMARK  106  A    between atoms: _268  and  _269
REMARK  107  A    between atoms: _269  and  _270
REMARK  108  A    between atoms: _272  and  _274
REMARK  109  A    between atoms: _274  and  _275
REMARK  110  A    between atoms: _274  and  _277
REMARK  111  A    between atoms: _277  and  _278
REMARK  112  A    between atoms: _284  and  _286
REMARK  113  A    between atoms: _286  and  _287
REMARK  114  A    between atoms: _286  and  _289
REMARK  115  A    between atoms: _292  and  _294
REMARK  116  A    between atoms: _294  and  _295
REMARK  117  A    between atoms: _294  and  _297
REMARK  118  A    between atoms: _297  and  _298
REMARK  119  A    between atoms: _298  and  _299
REMARK  120  A    between atoms: _299  and  _300
REMARK  121  A    between atoms: _309  and  _311
REMARK  122  A    between atoms: _311  and  _312
REMARK  123  A    between atoms: _311  and  _314
REMARK  124  A    between atoms: _314  and  _315
REMARK  125  A    between atoms: _320  and  _322
REMARK  126  A    between atoms: _322  and  _323
REMARK  127  A    between atoms: _322  and  _325
REMARK  128  A    between atoms: _325  and  _326
REMARK  129  A    between atoms: _331  and  _332
REMARK  130  A    between atoms: _334  and  _336
REMARK  131  A    between atoms: _336  and  _337
REMARK  132  A    between atoms: _336  and  _339
REMARK  133  A    between atoms: _339  and  _340
REMARK  134  A    between atoms: _340  and  _341
REMARK  135  A    between atoms: _341  and  _342
REMARK  136  A    between atoms: _351  and  _353
REMARK  137  A    between atoms: _353  and  _354
REMARK  138  A    between atoms: _353  and  _356
REMARK  139  A    between atoms: _356  and  _357
REMARK  140  A    between atoms: _362  and  _363
REMARK  141  A    between atoms: _365  and  _367
REMARK  142  A    between atoms: _367  and  _368
REMARK  143  A    between atoms: _367  and  _370
REMARK  144  A    between atoms: _370  and  _371
REMARK  145  A    between atoms: _373  and  _375
REMARK  146  A    between atoms: _375  and  _376
REMARK  147  A    between atoms: _375  and  _378
REMARK  148  A    between atoms: _378  and  _379
REMARK                            x       y       z     vdW  Elec       q    Type
REMARK                         _______ _______ _______ _____ _____    ______ ____
ROOT
ATOM      1  O   HOH     1      78.739  48.781  28.811  0.00  0.00    +0.000 OA
ENDROOT
TORSDOF 0
REMARK  Name = ../refined-set-2016/1toi/1toi_pocket.pdb
REMARK  148 active torsions:
REMARK  status: ('A' for Active; 'I' for Inactive)
REMARK    1  A    between atoms: _1  and  _3
REMARK    2  A    between atoms: _3  and  _4
REMARK    3  A    between atoms: _3  and  _6
REMARK    4  A    between atoms: _6  and  _7
REMARK    5  A    between atoms: _10  and  _12
REMARK    6  A    between atoms: _12  and  _13
REMARK    7  A    between atoms: _12  and  _15
REMARK    8  A    between atoms: _15  and  _16
REMARK    9  A    between atoms: _19  and  _21
REMARK   10  A    between atoms: _21  and  _22
REMARK   11  A    between atoms: _21  and  _24
REMARK   12  A    between atoms: _24  and  _25
REMARK   13  A    between atoms: _28  and  _30
REMARK   14  A    between atoms: _30  and  _31
REMARK   15  A    between atoms: _33  and  _35
REMARK   16  A    between atoms: _35  and  _36
REMARK   17  A    between atoms: _35  and  _38
REMARK   18  A    between atoms: _38  and  _39
REMARK   19  A    between atoms: _42  and  _44
REMARK   20  A    between atoms: _44  and  _45
REMARK   21  A    between atoms: _44  and  _47
REMARK   22  A    between atoms: _47  and  _48
REMARK   23  A    between atoms: _51  and  _53
REMARK   24  A    between atoms: _53  and  _54
REMARK   25  A    between atoms: _56  and  _58
REMARK   26  A    between atoms: _58  and  _59
REMARK   27  A    between atoms: _58  and  _61
REMARK   28  A    between atoms: _61  and  _62
REMARK   29  A    between atoms: _65  and  _67
REMARK   30  A    between atoms: _67  and  _68
REMARK   31  A    between atoms: _70  and  _72
REMARK   32  A    between atoms: _72  and  _73
REMARK   33  A    between atoms: _72  and  _75
REMARK   34  A    between atoms: _75  and  _76
REMARK   35  A    between atoms: _79  and  _81
REMARK   36  A    between atoms: _81  and  _82
REMARK   37  A    between atoms: _84  and  _86
REMARK   38  A    between atoms: _86  and  _87
REMARK   39  A    between atoms: _86  and  _89
REMARK   40  A    between atoms: _89  and  _90
REMARK   41  A    between atoms: _92  and  _94
REMARK   42  A    between atoms: _94  and  _95
REMARK   43  A    between atoms: _97  and  _99
REMARK   44  A    between atoms: _99  and  _100
REMARK   45  A    between atoms: _99  and  _102
REMARK   46  A    between atoms: _102  and  _103
REMARK   47  A    between atoms: _106  and  _108
REMARK   48  A    between atoms: _108  and  _109
REMARK   49  A    between atoms: _108  and  _111
REMARK   50  A    between atoms: _111  and  _112
REMARK   51  A    between atoms: _123  and  _124
REMARK   52  A    between atoms: _129  and  _131
REMARK   53  A    between atoms: _131  and  _132
REMARK   54  A    between atoms: _131  and  _134
REMARK   55  A    between atoms: _134  and  _135
REMARK   56  A    between atoms: _140  and  _142
REMARK   57  A    between atoms: _142  and  _143
REMARK   58  A    between atoms: _142  and  _145
REMARK   59  A    between atoms: _145  and  _146
REMARK   60  A    between atoms: _151  and  _153
REMARK   61  A    between atoms: _153  and  _154
REMARK   62  A    between atoms: _153  and  _156
REMARK   63  A    between atoms: _156  and  _157
REMARK   64  A    between atoms: _163  and  _164
REMARK   65  A    between atoms: _169  and  _171
REMARK   66  A    between atoms: _171  and  _172
REMARK   67  A    between atoms: _175  and  _177
REMARK   68  A    between atoms: _177  and  _178
REMARK   69  A    between atoms: _177  and  _180
REMARK   70  A    between atoms: _180  and  _181
REMARK   71  A    between atoms: _186  and  _187
REMARK   72  A    between atoms: _189  and  _191
REMARK   73  A    between atoms: _191  and  _192
REMARK   74  A    between atoms: _191  and  _194
REMARK   75  A    between atoms: _194  and  _195
REMARK   76  A    between atoms: _197  and  _199
REMARK   77  A    between atoms: _199  and  _200
REMARK   78  A    between atoms: _199  and  _202
REMARK   79  A    between atoms: _202  and  _203
REMARK   80  A    between atoms: _210  and  _211
REMARK   81  A    between atoms: _211  and  _227
REMARK   82  A    between atoms: _212  and  _214
REMARK   83  A    between atoms: _214  and  _215
REMARK   84  A    between atoms: _215  and  _216
REMARK   85  A    between atoms: _220  and  _222
REMARK   86  A    between atoms: _222  and  _223
REMARK   87  A    between atoms: _222  and  _230
REMARK   88  A    between atoms: _223  and  _224
REMARK   89  A    between atoms: _224  and  _225
REMARK   90  A    between atoms: _225  and  _226
REMARK   91  A    between atoms: _226  and  _227
REMARK   92  A    between atoms: _232  and  _234
REMARK   93  A    between atoms: _234  and  _235
REMARK   94  A    between atoms: _234  and  _237
REMARK   95  A    between atoms: _237  and  _238
REMARK   96  A    between atoms: _243  and  _244
REMARK   97  A    between atoms: _246  and  _248
REMARK   98  A    between atoms: _248  and  _249
REMARK   99  A    between atoms: _248  and  _251
REMARK  100  A    between atoms: _251  and  _252
REMARK  101  A    between atoms: _252  and  _253
REMARK  102  A    between atoms: _253  and  _254
REMARK  103  A    between atoms: _263  and  _265
REMARK  104  A    between atoms: _265  and  _266
REMARK  105  A    between atoms: _265  and  _268
REMARK  106  A    between atoms: _268  and  _269
REMARK  107  A    between atoms: _269  and  _270
REMARK  108  A    between atoms: _272  and  _274
REMARK  109  A    between atoms: _274  and  _275
REMARK  110  A    between atoms: _274  and  _277
REMARK  111  A    between atoms: _277  and  _278
REMARK  112  A    between atoms: _284  and  _286
REMARK  113  A    between atoms: _286  and  _287
REMARK  114  A    between atoms: _286  and  _289
REMARK  115  A    between atoms: _292  and  _294
REMARK  116  A    between atoms: _294  and  _295
REMARK  117  A    between atoms: _294  and  _297
REMARK  118  A    between atoms: _297  and  _298
REMARK  119  A    between atoms: _298  and  _299
REMARK  120  A    between atoms: _299  and  _300
REMARK  121  A    between atoms: _309  and  _311
REMARK  122  A    between atoms: _311  and  _312
REMARK  123  A    between atoms: _311  and  _314
REMARK  124  A    between atoms: _314  and  _315
REMARK  125  A    between atoms: _320  and  _322
REMARK  126  A    between atoms: _322  and  _323
REMARK  127  A    between atoms: _322  and  _325
REMARK  128  A    between atoms: _325  and  _326
REMARK  129  A    between atoms: _331  and  _332
REMARK  130  A    between atoms: _334  and  _336
REMARK  131  A    between atoms: _336  and  _337
REMARK  132  A    between atoms: _336  and  _339
REMARK  133  A    between atoms: _339  and  _340
REMARK  134  A    between atoms: _340  and  _341
REMARK  135  A    between atoms: _341  and  _342
REMARK  136  A    between atoms: _351  and  _353
REMARK  137  A    between atoms: _353  and  _354
REMARK  138  A    between atoms: _353  and  _356
REMARK  139  A    between atoms: _356  and  _357
REMARK  140  A    between atoms: _362  and  _363
REMARK  141  A    between atoms: _365  and  _367
REMARK  142  A    between atoms: _367  and  _368
REMARK  143  A    between atoms: _367  and  _370
REMARK  144  A    between atoms: _370  and  _371
REMARK  145  A    between atoms: _373  and  _375
REMARK  146  A    between atoms: _375  and  _376
REMARK  147  A    between atoms: _375  and  _378
REMARK  148  A    between atoms: _378  and  _379
REMARK                            x       y       z     vdW  Elec       q    Type
REMARK                         _______ _______ _______ _____ _____    ______ ____
ROOT
ATOM      1  O   HOH     1      74.951  57.752  36.445  0.00  0.00    +0.000 OA
ENDROOT
TORSDOF 0
REMARK  Name = ../refined-set-2016/1toi/1toi_pocket.pdb
REMARK  148 active torsions:
REMARK  status: ('A' for Active; 'I' for Inactive)
REMARK    1  A    between atoms: _1  and  _3
REMARK    2  A    between atoms: _3  and  _4
REMARK    3  A    between atoms: _3  and  _6
REMARK    4  A    between atoms: _6  and  _7
REMARK    5  A    between atoms: _10  and  _12
REMARK    6  A    between atoms: _12  and  _13
REMARK    7  A    between atoms: _12  and  _15
REMARK    8  A    between atoms: _15  and  _16
REMARK    9  A    between atoms: _19  and  _21
REMARK   10  A    between atoms: _21  and  _22
REMARK   11  A    between atoms: _21  and  _24
REMARK   12  A    between atoms: _24  and  _25
REMARK   13  A    between atoms: _28  and  _30
REMARK   14  A    between atoms: _30  and  _31
REMARK   15  A    between atoms: _33  and  _35
REMARK   16  A    between atoms: _35  and  _36
REMARK   17  A    between atoms: _35  and  _38
REMARK   18  A    between atoms: _38  and  _39
REMARK   19  A    between atoms: _42  and  _44
REMARK   20  A    between atoms: _44  and  _45
REMARK   21  A    between atoms: _44  and  _47
REMARK   22  A    between atoms: _47  and  _48
REMARK   23  A    between atoms: _51  and  _53
REMARK   24  A    between atoms: _53  and  _54
REMARK   25  A    between atoms: _56  and  _58
REMARK   26  A    between atoms: _58  and  _59
REMARK   27  A    between atoms: _58  and  _61
REMARK   28  A    between atoms: _61  and  _62
REMARK   29  A    between atoms: _65  and  _67
REMARK   30  A    between atoms: _67  and  _68
REMARK   31  A    between atoms: _70  and  _72
REMARK   32  A    between atoms: _72  and  _73
REMARK   33  A    between atoms: _72  and  _75
REMARK   34  A    between atoms: _75  and  _76
REMARK   35  A    between atoms: _79  and  _81
REMARK   36  A    between atoms: _81  and  _82
REMARK   37  A    between atoms: _84  and  _86
REMARK   38  A    between atoms: _86  and  _87
REMARK   39  A    between atoms: _86  and  _89
REMARK   40  A    between atoms: _89  and  _90
REMARK   41  A    between atoms: _92  and  _94
REMARK   42  A    between atoms: _94  and  _95
REMARK   43  A    between atoms: _97  and  _99
REMARK   44  A    between atoms: _99  and  _100
REMARK   45  A    between atoms: _99  and  _102
REMARK   46  A    between atoms: _102  and  _103
REMARK   47  A    between atoms: _106  and  _108
REMARK   48  A    between atoms: _108  and  _109
REMARK   49  A    between atoms: _108  and  _111
REMARK   50  A    between atoms: _111  and  _112
REMARK   51  A    between atoms: _123  and  _124
REMARK   52  A    between atoms: _129  and  _131
REMARK   53  A    between atoms: _131  and  _132
REMARK   54  A    between atoms: _131  and  _134
REMARK   55  A    between atoms: _134  and  _135
REMARK   56  A    between atoms: _140  and  _142
REMARK   57  A    between atoms: _142  and  _143
REMARK   58  A    between atoms: _142  and  _145
REMARK   59  A    between atoms: _145  and  _146
REMARK   60  A    between atoms: _151  and  _153
REMARK   61  A    between atoms: _153  and  _154
REMARK   62  A    between atoms: _153  and  _156
REMARK   63  A    between atoms: _156  and  _157
REMARK   64  A    between atoms: _163  and  _164
REMARK   65  A    between atoms: _169  and  _171
REMARK   66  A    between atoms: _171  and  _172
REMARK   67  A    between atoms: _175  and  _177
REMARK   68  A    between atoms: _177  and  _178
REMARK   69  A    between atoms: _177  and  _180
REMARK   70  A    between atoms: _180  and  _181
REMARK   71  A    between atoms: _186  and  _187
REMARK   72  A    between atoms: _189  and  _191
REMARK   73  A    between atoms: _191  and  _192
REMARK   74  A    between atoms: _191  and  _194
REMARK   75  A    between atoms: _194  and  _195
REMARK   76  A    between atoms: _197  and  _199
REMARK   77  A    between atoms: _199  and  _200
REMARK   78  A    between atoms: _199  and  _202
REMARK   79  A    between atoms: _202  and  _203
REMARK   80  A    between atoms: _210  and  _211
REMARK   81  A    between atoms: _211  and  _227
REMARK   82  A    between atoms: _212  and  _214
REMARK   83  A    between atoms: _214  and  _215
REMARK   84  A    between atoms: _215  and  _216
REMARK   85  A    between atoms: _220  and  _222
REMARK   86  A    between atoms: _222  and  _223
REMARK   87  A    between atoms: _222  and  _230
REMARK   88  A    between atoms: _223  and  _224
REMARK   89  A    between atoms: _224  and  _225
REMARK   90  A    between atoms: _225  and  _226
REMARK   91  A    between atoms: _226  and  _227
REMARK   92  A    between atoms: _232  and  _234
REMARK   93  A    between atoms: _234  and  _235
REMARK   94  A    between atoms: _234  and  _237
REMARK   95  A    between atoms: _237  and  _238
REMARK   96  A    between atoms: _243  and  _244
REMARK   97  A    between atoms: _246  and  _248
REMARK   98  A    between atoms: _248  and  _249
REMARK   99  A    between atoms: _248  and  _251
REMARK  100  A    between atoms: _251  and  _252
REMARK  101  A    between atoms: _252  and  _253
REMARK  102  A    between atoms: _253  and  _254
REMARK  103  A    between atoms: _263  and  _265
REMARK  104  A    between atoms: _265  and  _266
REMARK  105  A    between atoms: _265  and  _268
REMARK  106  A    between atoms: _268  and  _269
REMARK  107  A    between atoms: _269  and  _270
REMARK  108  A    between atoms: _272  and  _274
REMARK  109  A    between atoms: _274  and  _275
REMARK  110  A    between atoms: _274  and  _277
REMARK  111  A    between atoms: _277  and  _278
REMARK  112  A    between atoms: _284  and  _286
REMARK  113  A    between atoms: _286  and  _287
REMARK  114  A    between atoms: _286  and  _289
REMARK  115  A    between atoms: _292  and  _294
REMARK  116  A    between atoms: _294  and  _295
REMARK  117  A    between atoms: _294  and  _297
REMARK  118  A    between atoms: _297  and  _298
REMARK  119  A    between atoms: _298  and  _299
REMARK  120  A    between atoms: _299  and  _300
REMARK  121  A    between atoms: _309  and  _311
REMARK  122  A    between atoms: _311  and  _312
REMARK  123  A    between atoms: _311  and  _314
REMARK  124  A    between atoms: _314  and  _315
REMARK  125  A    between atoms: _320  and  _322
REMARK  126  A    between atoms: _322  and  _323
REMARK  127  A    between atoms: _322  and  _325
REMARK  128  A    between atoms: _325  and  _326
REMARK  129  A    between atoms: _331  and  _332
REMARK  130  A    between atoms: _334  and  _336
REMARK  131  A    between atoms: _336  and  _337
REMARK  132  A    between atoms: _336  and  _339
REMARK  133  A    between atoms: _339  and  _340
REMARK  134  A    between atoms: _340  and  _341
REMARK  135  A    between atoms: _341  and  _342
REMARK  136  A    between atoms: _351  and  _353
REMARK  137  A    between atoms: _353  and  _354
REMARK  138  A    between atoms: _353  and  _356
REMARK  139  A    between atoms: _356  and  _357
REMARK  140  A    between atoms: _362  and  _363
REMARK  141  A    between atoms: _365  and  _367
REMARK  142  A    between atoms: _367  and  _368
REMARK  143  A    between atoms: _367  and  _370
REMARK  144  A    between atoms: _370  and  _371
REMARK  145  A    between atoms: _373  and  _375
REMARK  146  A    between atoms: _375  and  _376
REMARK  147  A    between atoms: _375  and  _378
REMARK  148  A    between atoms: _378  and  _379
REMARK                            x       y       z     vdW  Elec       q    Type
REMARK                         _______ _______ _______ _____ _____    ______ ____
ROOT
ATOM      1  O   HOH     1      72.103  48.557  30.028  0.00  0.00    +0.000 OA
ENDROOT
TORSDOF 0
REMARK  Name = ../refined-set-2016/1toi/1toi_pocket.pdb
REMARK  148 active torsions:
REMARK  status: ('A' for Active; 'I' for Inactive)
REMARK    1  A    between atoms: _1  and  _3
REMARK    2  A    between atoms: _3  and  _4
REMARK    3  A    between atoms: _3  and  _6
REMARK    4  A    between atoms: _6  and  _7
REMARK    5  A    between atoms: _10  and  _12
REMARK    6  A    between atoms: _12  and  _13
REMARK    7  A    between atoms: _12  and  _15
REMARK    8  A    between atoms: _15  and  _16
REMARK    9  A    between atoms: _19  and  _21
REMARK   10  A    between atoms: _21  and  _22
REMARK   11  A    between atoms: _21  and  _24
REMARK   12  A    between atoms: _24  and  _25
REMARK   13  A    between atoms: _28  and  _30
REMARK   14  A    between atoms: _30  and  _31
REMARK   15  A    between atoms: _33  and  _35
REMARK   16  A    between atoms: _35  and  _36
REMARK   17  A    between atoms: _35  and  _38
REMARK   18  A    between atoms: _38  and  _39
REMARK   19  A    between atoms: _42  and  _44
REMARK   20  A    between atoms: _44  and  _45
REMARK   21  A    between atoms: _44  and  _47
REMARK   22  A    between atoms: _47  and  _48
REMARK   23  A    between atoms: _51  and  _53
REMARK   24  A    between atoms: _53  and  _54
REMARK   25  A    between atoms: _56  and  _58
REMARK   26  A    between atoms: _58  and  _59
REMARK   27  A    between atoms: _58  and  _61
REMARK   28  A    between atoms: _61  and  _62
REMARK   29  A    between atoms: _65  and  _67
REMARK   30  A    between atoms: _67  and  _68
REMARK   31  A    between atoms: _70  and  _72
REMARK   32  A    between atoms: _72  and  _73
REMARK   33  A    between atoms: _72  and  _75
REMARK   34  A    between atoms: _75  and  _76
REMARK   35  A    between atoms: _79  and  _81
REMARK   36  A    between atoms: _81  and  _82
REMARK   37  A    between atoms: _84  and  _86
REMARK   38  A    between atoms: _86  and  _87
REMARK   39  A    between atoms: _86  and  _89
REMARK   40  A    between atoms: _89  and  _90
REMARK   41  A    between atoms: _92  and  _94
REMARK   42  A    between atoms: _94  and  _95
REMARK   43  A    between atoms: _97  and  _99
REMARK   44  A    between atoms: _99  and  _100
REMARK   45  A    between atoms: _99  and  _102
REMARK   46  A    between atoms: _102  and  _103
REMARK   47  A    between atoms: _106  and  _108
REMARK   48  A    between atoms: _108  and  _109
REMARK   49  A    between atoms: _108  and  _111
REMARK   50  A    between atoms: _111  and  _112
REMARK   51  A    between atoms: _123  and  _124
REMARK   52  A    between atoms: _129  and  _131
REMARK   53  A    between atoms: _131  and  _132
REMARK   54  A    between atoms: _131  and  _134
REMARK   55  A    between atoms: _134  and  _135
REMARK   56  A    between atoms: _140  and  _142
REMARK   57  A    between atoms: _142  and  _143
REMARK   58  A    between atoms: _142  and  _145
REMARK   59  A    between atoms: _145  and  _146
REMARK   60  A    between atoms: _151  and  _153
REMARK   61  A    between atoms: _153  and  _154
REMARK   62  A    between atoms: _153  and  _156
REMARK   63  A    between atoms: _156  and  _157
REMARK   64  A    between atoms: _163  and  _164
REMARK   65  A    between atoms: _169  and  _171
REMARK   66  A    between atoms: _171  and  _172
REMARK   67  A    between atoms: _175  and  _177
REMARK   68  A    between atoms: _177  and  _178
REMARK   69  A    between atoms: _177  and  _180
REMARK   70  A    between atoms: _180  and  _181
REMARK   71  A    between atoms: _186  and  _187
REMARK   72  A    between atoms: _189  and  _191
REMARK   73  A    between atoms: _191  and  _192
REMARK   74  A    between atoms: _191  and  _194
REMARK   75  A    between atoms: _194  and  _195
REMARK   76  A    between atoms: _197  and  _199
REMARK   77  A    between atoms: _199  and  _200
REMARK   78  A    between atoms: _199  and  _202
REMARK   79  A    between atoms: _202  and  _203
REMARK   80  A    between atoms: _210  and  _211
REMARK   81  A    between atoms: _211  and  _227
REMARK   82  A    between atoms: _212  and  _214
REMARK   83  A    between atoms: _214  and  _215
REMARK   84  A    between atoms: _215  and  _216
REMARK   85  A    between atoms: _220  and  _222
REMARK   86  A    between atoms: _222  and  _223
REMARK   87  A    between atoms: _222  and  _230
REMARK   88  A    between atoms: _223  and  _224
REMARK   89  A    between atoms: _224  and  _225
REMARK   90  A    between atoms: _225  and  _226
REMARK   91  A    between atoms: _226  and  _227
REMARK   92  A    between atoms: _232  and  _234
REMARK   93  A    between atoms: _234  and  _235
REMARK   94  A    between atoms: _234  and  _237
REMARK   95  A    between atoms: _237  and  _238
REMARK   96  A    between atoms: _243  and  _244
REMARK   97  A    between atoms: _246  and  _248
REMARK   98  A    between atoms: _248  and  _249
REMARK   99  A    between atoms: _248  and  _251
REMARK  100  A    between atoms: _251  and  _252
REMARK  101  A    between atoms: _252  and  _253
REMARK  102  A    between atoms: _253  and  _254
REMARK  103  A    between atoms: _263  and  _265
REMARK  104  A    between atoms: _265  and  _266
REMARK  105  A    between atoms: _265  and  _268
REMARK  106  A    between atoms: _268  and  _269
REMARK  107  A    between atoms: _269  and  _270
REMARK  108  A    between atoms: _272  and  _274
REMARK  109  A    between atoms: _274  and  _275
REMARK  110  A    between atoms: _274  and  _277
REMARK  111  A    between atoms: _277  and  _278
REMARK  112  A    between atoms: _284  and  _286
REMARK  113  A    between atoms: _286  and  _287
REMARK  114  A    between atoms: _286  and  _289
REMARK  115  A    between atoms: _292  and  _294
REMARK  116  A    between atoms: _294  and  _295
REMARK  117  A    between atoms: _294  and  _297
REMARK  118  A    between atoms: _297  and  _298
REMARK  119  A    between atoms: _298  and  _299
REMARK  120  A    between atoms: _299  and  _300
REMARK  121  A    between atoms: _309  and  _311
REMARK  122  A    between atoms: _311  and  _312
REMARK  123  A    between atoms: _311  and  _314
REMARK  124  A    between atoms: _314  and  _315
REMARK  125  A    between atoms: _320  and  _322
REMARK  126  A    between atoms: _322  and  _323
REMARK  127  A    between atoms: _322  and  _325
REMARK  128  A    between atoms: _325  and  _326
REMARK  129  A    between atoms: _331  and  _332
REMARK  130  A    between atoms: _334  and  _336
REMARK  131  A    between atoms: _336  and  _337
REMARK  132  A    between atoms: _336  and  _339
REMARK  133  A    between atoms: _339  and  _340
REMARK  134  A    between atoms: _340  and  _341
REMARK  135  A    between atoms: _341  and  _342
REMARK  136  A    between atoms: _351  and  _353
REMARK  137  A    between atoms: _353  and  _354
REMARK  138  A    between atoms: _353  and  _356
REMARK  139  A    between atoms: _356  and  _357
REMARK  140  A    between atoms: _362  and  _363
REMARK  141  A    between atoms: _365  and  _367
REMARK  142  A    between atoms: _367  and  _368
REMARK  143  A    between atoms: _367  and  _370
REMARK  144  A    between atoms: _370  and  _371
REMARK  145  A    between atoms: _373  and  _375
REMARK  146  A    between atoms: _375  and  _376
REMARK  147  A    between atoms: _375  and  _378
REMARK  148  A    between atoms: _378  and  _379
REMARK                            x       y       z     vdW  Elec       q    Type
REMARK                         _______ _______ _______ _____ _____    ______ ____
ROOT
ATOM      1  O   HOH     1      68.557  46.301  35.854  0.00  0.00    +0.000 OA
ENDROOT
TORSDOF 0
REMARK  Name = ../refined-set-2016/1toi/1toi_pocket.pdb
REMARK  148 active torsions:
REMARK  status: ('A' for Active; 'I' for Inactive)
REMARK    1  A    between atoms: _1  and  _3
REMARK    2  A    between atoms: _3  and  _4
REMARK    3  A    between atoms: _3  and  _6
REMARK    4  A    between atoms: _6  and  _7
REMARK    5  A    between atoms: _10  and  _12
REMARK    6  A    between atoms: _12  and  _13
REMARK    7  A    between atoms: _12  and  _15
REMARK    8  A    between atoms: _15  and  _16
REMARK    9  A    between atoms: _19  and  _21
REMARK   10  A    between atoms: _21  and  _22
REMARK   11  A    between atoms: _21  and  _24
REMARK   12  A    between atoms: _24  and  _25
REMARK   13  A    between atoms: _28  and  _30
REMARK   14  A    between atoms: _30  and  _31
REMARK   15  A    between atoms: _33  and  _35
REMARK   16  A    between atoms: _35  and  _36
REMARK   17  A    between atoms: _35  and  _38
REMARK   18  A    between atoms: _38  and  _39
REMARK   19  A    between atoms: _42  and  _44
REMARK   20  A    between atoms: _44  and  _45
REMARK   21  A    between atoms: _44  and  _47
REMARK   22  A    between atoms: _47  and  _48
REMARK   23  A    between atoms: _51  and  _53
REMARK   24  A    between atoms: _53  and  _54
REMARK   25  A    between atoms: _56  and  _58
REMARK   26  A    between atoms: _58  and  _59
REMARK   27  A    between atoms: _58  and  _61
REMARK   28  A    between atoms: _61  and  _62
REMARK   29  A    between atoms: _65  and  _67
REMARK   30  A    between atoms: _67  and  _68
REMARK   31  A    between atoms: _70  and  _72
REMARK   32  A    between atoms: _72  and  _73
REMARK   33  A    between atoms: _72  and  _75
REMARK   34  A    between atoms: _75  and  _76
REMARK   35  A    between atoms: _79  and  _81
REMARK   36  A    between atoms: _81  and  _82
REMARK   37  A    between atoms: _84  and  _86
REMARK   38  A    between atoms: _86  and  _87
REMARK   39  A    between atoms: _86  and  _89
REMARK   40  A    between atoms: _89  and  _90
REMARK   41  A    between atoms: _92  and  _94
REMARK   42  A    between atoms: _94  and  _95
REMARK   43  A    between atoms: _97  and  _99
REMARK   44  A    between atoms: _99  and  _100
REMARK   45  A    between atoms: _99  and  _102
REMARK   46  A    between atoms: _102  and  _103
REMARK   47  A    between atoms: _106  and  _108
REMARK   48  A    between atoms: _108  and  _109
REMARK   49  A    between atoms: _108  and  _111
REMARK   50  A    between atoms: _111  and  _112
REMARK   51  A    between atoms: _123  and  _124
REMARK   52  A    between atoms: _129  and  _131
REMARK   53  A    between atoms: _131  and  _132
REMARK   54  A    between atoms: _131  and  _134
REMARK   55  A    between atoms: _134  and  _135
REMARK   56  A    between atoms: _140  and  _142
REMARK   57  A    between atoms: _142  and  _143
REMARK   58  A    between atoms: _142  and  _145
REMARK   59  A    between atoms: _145  and  _146
REMARK   60  A    between atoms: _151  and  _153
REMARK   61  A    between atoms: _153  and  _154
REMARK   62  A    between atoms: _153  and  _156
REMARK   63  A    between atoms: _156  and  _157
REMARK   64  A    between atoms: _163  and  _164
REMARK   65  A    between atoms: _169  and  _171
REMARK   66  A    between atoms: _171  and  _172
REMARK   67  A    between atoms: _175  and  _177
REMARK   68  A    between atoms: _177  and  _178
REMARK   69  A    between atoms: _177  and  _180
REMARK   70  A    between atoms: _180  and  _181
REMARK   71  A    between atoms: _186  and  _187
REMARK   72  A    between atoms: _189  and  _191
REMARK   73  A    between atoms: _191  and  _192
REMARK   74  A    between atoms: _191  and  _194
REMARK   75  A    between atoms: _194  and  _195
REMARK   76  A    between atoms: _197  and  _199
REMARK   77  A    between atoms: _199  and  _200
REMARK   78  A    between atoms: _199  and  _202
REMARK   79  A    between atoms: _202  and  _203
REMARK   80  A    between atoms: _210  and  _211
REMARK   81  A    between atoms: _211  and  _227
REMARK   82  A    between atoms: _212  and  _214
REMARK   83  A    between atoms: _214  and  _215
REMARK   84  A    between atoms: _215  and  _216
REMARK   85  A    between atoms: _220  and  _222
REMARK   86  A    between atoms: _222  and  _223
REMARK   87  A    between atoms: _222  and  _230
REMARK   88  A    between atoms: _223  and  _224
REMARK   89  A    between atoms: _224  and  _225
REMARK   90  A    between atoms: _225  and  _226
REMARK   91  A    between atoms: _226  and  _227
REMARK   92  A    between atoms: _232  and  _234
REMARK   93  A    between atoms: _234  and  _235
REMARK   94  A    between atoms: _234  and  _237
REMARK   95  A    between atoms: _237  and  _238
REMARK   96  A    between atoms: _243  and  _244
REMARK   97  A    between atoms: _246  and  _248
REMARK   98  A    between atoms: _248  and  _249
REMARK   99  A    between atoms: _248  and  _251
REMARK  100  A    between atoms: _251  and  _252
REMARK  101  A    between atoms: _252  and  _253
REMARK  102  A    between atoms: _253  and  _254
REMARK  103  A    between atoms: _263  and  _265
REMARK  104  A    between atoms: _265  and  _266
REMARK  105  A    between atoms: _265  and  _268
REMARK  106  A    between atoms: _268  and  _269
REMARK  107  A    between atoms: _269  and  _270
REMARK  108  A    between atoms: _272  and  _274
REMARK  109  A    between atoms: _274  and  _275
REMARK  110  A    between atoms: _274  and  _277
REMARK  111  A    between atoms: _277  and  _278
REMARK  112  A    between atoms: _284  and  _286
REMARK  113  A    between atoms: _286  and  _287
REMARK  114  A    between atoms: _286  and  _289
REMARK  115  A    between atoms: _292  and  _294
REMARK  116  A    between atoms: _294  and  _295
REMARK  117  A    between atoms: _294  and  _297
REMARK  118  A    between atoms: _297  and  _298
REMARK  119  A    between atoms: _298  and  _299
REMARK  120  A    between atoms: _299  and  _300
REMARK  121  A    between atoms: _309  and  _311
REMARK  122  A    between atoms: _311  and  _312
REMARK  123  A    between atoms: _311  and  _314
REMARK  124  A    between atoms: _314  and  _315
REMARK  125  A    between atoms: _320  and  _322
REMARK  126  A    between atoms: _322  and  _323
REMARK  127  A    between atoms: _322  and  _325
REMARK  128  A    between atoms: _325  and  _326
REMARK  129  A    between atoms: _331  and  _332
REMARK  130  A    between atoms: _334  and  _336
REMARK  131  A    between atoms: _336  and  _337
REMARK  132  A    between atoms: _336  and  _339
REMARK  133  A    between atoms: _339  and  _340
REMARK  134  A    between atoms: _340  and  _341
REMARK  135  A    between atoms: _341  and  _342
REMARK  136  A    between atoms: _351  and  _353
REMARK  137  A    between atoms: _353  and  _354
REMARK  138  A    between atoms: _353  and  _356
REMARK  139  A    between atoms: _356  and  _357
REMARK  140  A    between atoms: _362  and  _363
REMARK  141  A    between atoms: _365  and  _367
REMARK  142  A    between atoms: _367  and  _368
REMARK  143  A    between atoms: _367  and  _370
REMARK  144  A    between atoms: _370  and  _371
REMARK  145  A    between atoms: _373  and  _375
REMARK  146  A    between atoms: _375  and  _376
REMARK  147  A    between atoms: _375  and  _378
REMARK  148  A    between atoms: _378  and  _379
REMARK                            x       y       z     vdW  Elec       q    Type
REMARK                         _______ _______ _______ _____ _____    ______ ____
ROOT
ATOM      1  O   HOH     1      72.504  44.893  29.117  0.00  0.00    +0.000 OA
ENDROOT
TORSDOF 0
REMARK  Name = ../refined-set-2016/1toi/1toi_pocket.pdb
REMARK  148 active torsions:
REMARK  status: ('A' for Active; 'I' for Inactive)
REMARK    1  A    between atoms: _1  and  _3
REMARK    2  A    between atoms: _3  and  _4
REMARK    3  A    between atoms: _3  and  _6
REMARK    4  A    between atoms: _6  and  _7
REMARK    5  A    between atoms: _10  and  _12
REMARK    6  A    between atoms: _12  and  _13
REMARK    7  A    between atoms: _12  and  _15
REMARK    8  A    between atoms: _15  and  _16
REMARK    9  A    between atoms: _19  and  _21
REMARK   10  A    between atoms: _21  and  _22
REMARK   11  A    between atoms: _21  and  _24
REMARK   12  A    between atoms: _24  and  _25
REMARK   13  A    between atoms: _28  and  _30
REMARK   14  A    between atoms: _30  and  _31
REMARK   15  A    between atoms: _33  and  _35
REMARK   16  A    between atoms: _35  and  _36
REMARK   17  A    between atoms: _35  and  _38
REMARK   18  A    between atoms: _38  and  _39
REMARK   19  A    between atoms: _42  and  _44
REMARK   20  A    between atoms: _44  and  _45
REMARK   21  A    between atoms: _44  and  _47
REMARK   22  A    between atoms: _47  and  _48
REMARK   23  A    between atoms: _51  and  _53
REMARK   24  A    between atoms: _53  and  _54
REMARK   25  A    between atoms: _56  and  _58
REMARK   26  A    between atoms: _58  and  _59
REMARK   27  A    between atoms: _58  and  _61
REMARK   28  A    between atoms: _61  and  _62
REMARK   29  A    between atoms: _65  and  _67
REMARK   30  A    between atoms: _67  and  _68
REMARK   31  A    between atoms: _70  and  _72
REMARK   32  A    between atoms: _72  and  _73
REMARK   33  A    between atoms: _72  and  _75
REMARK   34  A    between atoms: _75  and  _76
REMARK   35  A    between atoms: _79  and  _81
REMARK   36  A    between atoms: _81  and  _82
REMARK   37  A    between atoms: _84  and  _86
REMARK   38  A    between atoms: _86  and  _87
REMARK   39  A    between atoms: _86  and  _89
REMARK   40  A    between atoms: _89  and  _90
REMARK   41  A    between atoms: _92  and  _94
REMARK   42  A    between atoms: _94  and  _95
REMARK   43  A    between atoms: _97  and  _99
REMARK   44  A    between atoms: _99  and  _100
REMARK   45  A    between atoms: _99  and  _102
REMARK   46  A    between atoms: _102  and  _103
REMARK   47  A    between atoms: _106  and  _108
REMARK   48  A    between atoms: _108  and  _109
REMARK   49  A    between atoms: _108  and  _111
REMARK   50  A    between atoms: _111  and  _112
REMARK   51  A    between atoms: _123  and  _124
REMARK   52  A    between atoms: _129  and  _131
REMARK   53  A    between atoms: _131  and  _132
REMARK   54  A    between atoms: _131  and  _134
REMARK   55  A    between atoms: _134  and  _135
REMARK   56  A    between atoms: _140  and  _142
REMARK   57  A    between atoms: _142  and  _143
REMARK   58  A    between atoms: _142  and  _145
REMARK   59  A    between atoms: _145  and  _146
REMARK   60  A    between atoms: _151  and  _153
REMARK   61  A    between atoms: _153  and  _154
REMARK   62  A    between atoms: _153  and  _156
REMARK   63  A    between atoms: _156  and  _157
REMARK   64  A    between atoms: _163  and  _164
REMARK   65  A    between atoms: _169  and  _171
REMARK   66  A    between atoms: _171  and  _172
REMARK   67  A    between atoms: _175  and  _177
REMARK   68  A    between atoms: _177  and  _178
REMARK   69  A    between atoms: _177  and  _180
REMARK   70  A    between atoms: _180  and  _181
REMARK   71  A    between atoms: _186  and  _187
REMARK   72  A    between atoms: _189  and  _191
REMARK   73  A    between atoms: _191  and  _192
REMARK   74  A    between atoms: _191  and  _194
REMARK   75  A    between atoms: _194  and  _195
REMARK   76  A    between atoms: _197  and  _199
REMARK   77  A    between atoms: _199  and  _200
REMARK   78  A    between atoms: _199  and  _202
REMARK   79  A    between atoms: _202  and  _203
REMARK   80  A    between atoms: _210  and  _211
REMARK   81  A    between atoms: _211  and  _227
REMARK   82  A    between atoms: _212  and  _214
REMARK   83  A    between atoms: _214  and  _215
REMARK   84  A    between atoms: _215  and  _216
REMARK   85  A    between atoms: _220  and  _222
REMARK   86  A    between atoms: _222  and  _223
REMARK   87  A    between atoms: _222  and  _230
REMARK   88  A    between atoms: _223  and  _224
REMARK   89  A    between atoms: _224  and  _225
REMARK   90  A    between atoms: _225  and  _226
REMARK   91  A    between atoms: _226  and  _227
REMARK   92  A    between atoms: _232  and  _234
REMARK   93  A    between atoms: _234  and  _235
REMARK   94  A    between atoms: _234  and  _237
REMARK   95  A    between atoms: _237  and  _238
REMARK   96  A    between atoms: _243  and  _244
REMARK   97  A    between atoms: _246  and  _248
REMARK   98  A    between atoms: _248  and  _249
REMARK   99  A    between atoms: _248  and  _251
REMARK  100  A    between atoms: _251  and  _252
REMARK  101  A    between atoms: _252  and  _253
REMARK  102  A    between atoms: _253  and  _254
REMARK  103  A    between atoms: _263  and  _265
REMARK  104  A    between atoms: _265  and  _266
REMARK  105  A    between atoms: _265  and  _268
REMARK  106  A    between atoms: _268  and  _269
REMARK  107  A    between atoms: _269  and  _270
REMARK  108  A    between atoms: _272  and  _274
REMARK  109  A    between atoms: _274  and  _275
REMARK  110  A    between atoms: _274  and  _277
REMARK  111  A    between atoms: _277  and  _278
REMARK  112  A    between atoms: _284  and  _286
REMARK  113  A    between atoms: _286  and  _287
REMARK  114  A    between atoms: _286  and  _289
REMARK  115  A    between atoms: _292  and  _294
REMARK  116  A    between atoms: _294  and  _295
REMARK  117  A    between atoms: _294  and  _297
REMARK  118  A    between atoms: _297  and  _298
REMARK  119  A    between atoms: _298  and  _299
REMARK  120  A    between atoms: _299  and  _300
REMARK  121  A    between atoms: _309  and  _311
REMARK  122  A    between atoms: _311  and  _312
REMARK  123  A    between atoms: _311  and  _314
REMARK  124  A    between atoms: _314  and  _315
REMARK  125  A    between atoms: _320  and  _322
REMARK  126  A    between atoms: _322  and  _323
REMARK  127  A    between atoms: _322  and  _325
REMARK  128  A    between atoms: _325  and  _326
REMARK  129  A    between atoms: _331  and  _332
REMARK  130  A    between atoms: _334  and  _336
REMARK  131  A    between atoms: _336  and  _337
REMARK  132  A    between atoms: _336  and  _339
REMARK  133  A    between atoms: _339  and  _340
REMARK  134  A    between atoms: _340  and  _341
REMARK  135  A    between atoms: _341  and  _342
REMARK  136  A    between atoms: _351  and  _353
REMARK  137  A    between atoms: _353  and  _354
REMARK  138  A    between atoms: _353  and  _356
REMARK  139  A    between atoms: _356  and  _357
REMARK  140  A    between atoms: _362  and  _363
REMARK  141  A    between atoms: _365  and  _367
REMARK  142  A    between atoms: _367  and  _368
REMARK  143  A    between atoms: _367  and  _370
REMARK  144  A    between atoms: _370  and  _371
REMARK  145  A    between atoms: _373  and  _375
REMARK  146  A    between atoms: _375  and  _376
REMARK  147  A    between atoms: _375  and  _378
REMARK  148  A    between atoms: _378  and  _379
REMARK                            x       y       z     vdW  Elec       q    Type
REMARK                         _______ _______ _______ _____ _____    ______ ____
ROOT
ATOM      1  O   HOH     1      67.510  59.794  32.828  0.00  0.00    +0.000 OA
ENDROOT
TORSDOF 0
REMARK  Name = ../refined-set-2016/1toi/1toi_pocket.pdb
REMARK  148 active torsions:
REMARK  status: ('A' for Active; 'I' for Inactive)
REMARK    1  A    between atoms: _1  and  _3
REMARK    2  A    between atoms: _3  and  _4
REMARK    3  A    between atoms: _3  and  _6
REMARK    4  A    between atoms: _6  and  _7
REMARK    5  A    between atoms: _10  and  _12
REMARK    6  A    between atoms: _12  and  _13
REMARK    7  A    between atoms: _12  and  _15
REMARK    8  A    between atoms: _15  and  _16
REMARK    9  A    between atoms: _19  and  _21
REMARK   10  A    between atoms: _21  and  _22
REMARK   11  A    between atoms: _21  and  _24
REMARK   12  A    between atoms: _24  and  _25
REMARK   13  A    between atoms: _28  and  _30
REMARK   14  A    between atoms: _30  and  _31
REMARK   15  A    between atoms: _33  and  _35
REMARK   16  A    between atoms: _35  and  _36
REMARK   17  A    between atoms: _35  and  _38
REMARK   18  A    between atoms: _38  and  _39
REMARK   19  A    between atoms: _42  and  _44
REMARK   20  A    between atoms: _44  and  _45
REMARK   21  A    between atoms: _44  and  _47
REMARK   22  A    between atoms: _47  and  _48
REMARK   23  A    between atoms: _51  and  _53
REMARK   24  A    between atoms: _53  and  _54
REMARK   25  A    between atoms: _56  and  _58
REMARK   26  A    between atoms: _58  and  _59
REMARK   27  A    between atoms: _58  and  _61
REMARK   28  A    between atoms: _61  and  _62
REMARK   29  A    between atoms: _65  and  _67
REMARK   30  A    between atoms: _67  and  _68
REMARK   31  A    between atoms: _70  and  _72
REMARK   32  A    between atoms: _72  and  _73
REMARK   33  A    between atoms: _72  and  _75
REMARK   34  A    between atoms: _75  and  _76
REMARK   35  A    between atoms: _79  and  _81
REMARK   36  A    between atoms: _81  and  _82
REMARK   37  A    between atoms: _84  and  _86
REMARK   38  A    between atoms: _86  and  _87
REMARK   39  A    between atoms: _86  and  _89
REMARK   40  A    between atoms: _89  and  _90
REMARK   41  A    between atoms: _92  and  _94
REMARK   42  A    between atoms: _94  and  _95
REMARK   43  A    between atoms: _97  and  _99
REMARK   44  A    between atoms: _99  and  _100
REMARK   45  A    between atoms: _99  and  _102
REMARK   46  A    between atoms: _102  and  _103
REMARK   47  A    between atoms: _106  and  _108
REMARK   48  A    between atoms: _108  and  _109
REMARK   49  A    between atoms: _108  and  _111
REMARK   50  A    between atoms: _111  and  _112
REMARK   51  A    between atoms: _123  and  _124
REMARK   52  A    between atoms: _129  and  _131
REMARK   53  A    between atoms: _131  and  _132
REMARK   54  A    between atoms: _131  and  _134
REMARK   55  A    between atoms: _134  and  _135
REMARK   56  A    between atoms: _140  and  _142
REMARK   57  A    between atoms: _142  and  _143
REMARK   58  A    between atoms: _142  and  _145
REMARK   59  A    between atoms: _145  and  _146
REMARK   60  A    between atoms: _151  and  _153
REMARK   61  A    between atoms: _153  and  _154
REMARK   62  A    between atoms: _153  and  _156
REMARK   63  A    between atoms: _156  and  _157
REMARK   64  A    between atoms: _163  and  _164
REMARK   65  A    between atoms: _169  and  _171
REMARK   66  A    between atoms: _171  and  _172
REMARK   67  A    between atoms: _175  and  _177
REMARK   68  A    between atoms: _177  and  _178
REMARK   69  A    between atoms: _177  and  _180
REMARK   70  A    between atoms: _180  and  _181
REMARK   71  A    between atoms: _186  and  _187
REMARK   72  A    between atoms: _189  and  _191
REMARK   73  A    between atoms: _191  and  _192
REMARK   74  A    between atoms: _191  and  _194
REMARK   75  A    between atoms: _194  and  _195
REMARK   76  A    between atoms: _197  and  _199
REMARK   77  A    between atoms: _199  and  _200
REMARK   78  A    between atoms: _199  and  _202
REMARK   79  A    between atoms: _202  and  _203
REMARK   80  A    between atoms: _210  and  _211
REMARK   81  A    between atoms: _211  and  _227
REMARK   82  A    between atoms: _212  and  _214
REMARK   83  A    between atoms: _214  and  _215
REMARK   84  A    between atoms: _215  and  _216
REMARK   85  A    between atoms: _220  and  _222
REMARK   86  A    between atoms: _222  and  _223
REMARK   87  A    between atoms: _222  and  _230
REMARK   88  A    between atoms: _223  and  _224
REMARK   89  A    between atoms: _224  and  _225
REMARK   90  A    between atoms: _225  and  _226
REMARK   91  A    between atoms: _226  and  _227
REMARK   92  A    between atoms: _232  and  _234
REMARK   93  A    between atoms: _234  and  _235
REMARK   94  A    between atoms: _234  and  _237
REMARK   95  A    between atoms: _237  and  _238
REMARK   96  A    between atoms: _243  and  _244
REMARK   97  A    between atoms: _246  and  _248
REMARK   98  A    between atoms: _248  and  _249
REMARK   99  A    between atoms: _248  and  _251
REMARK  100  A    between atoms: _251  and  _252
REMARK  101  A    between atoms: _252  and  _253
REMARK  102  A    between atoms: _253  and  _254
REMARK  103  A    between atoms: _263  and  _265
REMARK  104  A    between atoms: _265  and  _266
REMARK  105  A    between atoms: _265  and  _268
REMARK  106  A    between atoms: _268  and  _269
REMARK  107  A    between atoms: _269  and  _270
REMARK  108  A    between atoms: _272  and  _274
REMARK  109  A    between atoms: _274  and  _275
REMARK  110  A    between atoms: _274  and  _277
REMARK  111  A    between atoms: _277  and  _278
REMARK  112  A    between atoms: _284  and  _286
REMARK  113  A    between atoms: _286  and  _287
REMARK  114  A    between atoms: _286  and  _289
REMARK  115  A    between atoms: _292  and  _294
REMARK  116  A    between atoms: _294  and  _295
REMARK  117  A    between atoms: _294  and  _297
REMARK  118  A    between atoms: _297  and  _298
REMARK  119  A    between atoms: _298  and  _299
REMARK  120  A    between atoms: _299  and  _300
REMARK  121  A    between atoms: _309  and  _311
REMARK  122  A    between atoms: _311  and  _312
REMARK  123  A    between atoms: _311  and  _314
REMARK  124  A    between atoms: _314  and  _315
REMARK  125  A    between atoms: _320  and  _322
REMARK  126  A    between atoms: _322  and  _323
REMARK  127  A    between atoms: _322  and  _325
REMARK  128  A    between atoms: _325  and  _326
REMARK  129  A    between atoms: _331  and  _332
REMARK  130  A    between atoms: _334  and  _336
REMARK  131  A    between atoms: _336  and  _337
REMARK  132  A    between atoms: _336  and  _339
REMARK  133  A    between atoms: _339  and  _340
REMARK  134  A    between atoms: _340  and  _341
REMARK  135  A    between atoms: _341  and  _342
REMARK  136  A    between atoms: _351  and  _353
REMARK  137  A    between atoms: _353  and  _354
REMARK  138  A    between atoms: _353  and  _356
REMARK  139  A    between atoms: _356  and  _357
REMARK  140  A    between atoms: _362  and  _363
REMARK  141  A    between atoms: _365  and  _367
REMARK  142  A    between atoms: _367  and  _368
REMARK  143  A    between atoms: _367  and  _370
REMARK  144  A    between atoms: _370  and  _371
REMARK  145  A    between atoms: _373  and  _375
REMARK  146  A    between atoms: _375  and  _376
REMARK  147  A    between atoms: _375  and  _378
REMARK  148  A    between atoms: _378  and  _379
REMARK                            x       y       z     vdW  Elec       q    Type
REMARK                         _______ _______ _______ _____ _____    ______ ____
ROOT
ATOM      1  O   HOH     1      67.272  60.061  35.144  0.00  0.00    +0.000 OA
ENDROOT
TORSDOF 0
REMARK  Name = ../refined-set-2016/1toi/1toi_pocket.pdb
REMARK  148 active torsions:
REMARK  status: ('A' for Active; 'I' for Inactive)
REMARK    1  A    between atoms: _1  and  _3
REMARK    2  A    between atoms: _3  and  _4
REMARK    3  A    between atoms: _3  and  _6
REMARK    4  A    between atoms: _6  and  _7
REMARK    5  A    between atoms: _10  and  _12
REMARK    6  A    between atoms: _12  and  _13
REMARK    7  A    between atoms: _12  and  _15
REMARK    8  A    between atoms: _15  and  _16
REMARK    9  A    between atoms: _19  and  _21
REMARK   10  A    between atoms: _21  and  _22
REMARK   11  A    between atoms: _21  and  _24
REMARK   12  A    between atoms: _24  and  _25
REMARK   13  A    between atoms: _28  and  _30
REMARK   14  A    between atoms: _30  and  _31
REMARK   15  A    between atoms: _33  and  _35
REMARK   16  A    between atoms: _35  and  _36
REMARK   17  A    between atoms: _35  and  _38
REMARK   18  A    between atoms: _38  and  _39
REMARK   19  A    between atoms: _42  and  _44
REMARK   20  A    between atoms: _44  and  _45
REMARK   21  A    between atoms: _44  and  _47
REMARK   22  A    between atoms: _47  and  _48
REMARK   23  A    between atoms: _51  and  _53
REMARK   24  A    between atoms: _53  and  _54
REMARK   25  A    between atoms: _56  and  _58
REMARK   26  A    between atoms: _58  and  _59
REMARK   27  A    between atoms: _58  and  _61
REMARK   28  A    between atoms: _61  and  _62
REMARK   29  A    between atoms: _65  and  _67
REMARK   30  A    between atoms: _67  and  _68
REMARK   31  A    between atoms: _70  and  _72
REMARK   32  A    between atoms: _72  and  _73
REMARK   33  A    between atoms: _72  and  _75
REMARK   34  A    between atoms: _75  and  _76
REMARK   35  A    between atoms: _79  and  _81
REMARK   36  A    between atoms: _81  and  _82
REMARK   37  A    between atoms: _84  and  _86
REMARK   38  A    between atoms: _86  and  _87
REMARK   39  A    between atoms: _86  and  _89
REMARK   40  A    between atoms: _89  and  _90
REMARK   41  A    between atoms: _92  and  _94
REMARK   42  A    between atoms: _94  and  _95
REMARK   43  A    between atoms: _97  and  _99
REMARK   44  A    between atoms: _99  and  _100
REMARK   45  A    between atoms: _99  and  _102
REMARK   46  A    between atoms: _102  and  _103
REMARK   47  A    between atoms: _106  and  _108
REMARK   48  A    between atoms: _108  and  _109
REMARK   49  A    between atoms: _108  and  _111
REMARK   50  A    between atoms: _111  and  _112
REMARK   51  A    between atoms: _123  and  _124
REMARK   52  A    between atoms: _129  and  _131
REMARK   53  A    between atoms: _131  and  _132
REMARK   54  A    between atoms: _131  and  _134
REMARK   55  A    between atoms: _134  and  _135
REMARK   56  A    between atoms: _140  and  _142
REMARK   57  A    between atoms: _142  and  _143
REMARK   58  A    between atoms: _142  and  _145
REMARK   59  A    between atoms: _145  and  _146
REMARK   60  A    between atoms: _151  and  _153
REMARK   61  A    between atoms: _153  and  _154
REMARK   62  A    between atoms: _153  and  _156
REMARK   63  A    between atoms: _156  and  _157
REMARK   64  A    between atoms: _163  and  _164
REMARK   65  A    between atoms: _169  and  _171
REMARK   66  A    between atoms: _171  and  _172
REMARK   67  A    between atoms: _175  and  _177
REMARK   68  A    between atoms: _177  and  _178
REMARK   69  A    between atoms: _177  and  _180
REMARK   70  A    between atoms: _180  and  _181
REMARK   71  A    between atoms: _186  and  _187
REMARK   72  A    between atoms: _189  and  _191
REMARK   73  A    between atoms: _191  and  _192
REMARK   74  A    between atoms: _191  and  _194
REMARK   75  A    between atoms: _194  and  _195
REMARK   76  A    between atoms: _197  and  _199
REMARK   77  A    between atoms: _199  and  _200
REMARK   78  A    between atoms: _199  and  _202
REMARK   79  A    between atoms: _202  and  _203
REMARK   80  A    between atoms: _210  and  _211
REMARK   81  A    between atoms: _211  and  _227
REMARK   82  A    between atoms: _212  and  _214
REMARK   83  A    between atoms: _214  and  _215
REMARK   84  A    between atoms: _215  and  _216
REMARK   85  A    between atoms: _220  and  _222
REMARK   86  A    between atoms: _222  and  _223
REMARK   87  A    between atoms: _222  and  _230
REMARK   88  A    between atoms: _223  and  _224
REMARK   89  A    between atoms: _224  and  _225
REMARK   90  A    between atoms: _225  and  _226
REMARK   91  A    between atoms: _226  and  _227
REMARK   92  A    between atoms: _232  and  _234
REMARK   93  A    between atoms: _234  and  _235
REMARK   94  A    between atoms: _234  and  _237
REMARK   95  A    between atoms: _237  and  _238
REMARK   96  A    between atoms: _243  and  _244
REMARK   97  A    between atoms: _246  and  _248
REMARK   98  A    between atoms: _248  and  _249
REMARK   99  A    between atoms: _248  and  _251
REMARK  100  A    between atoms: _251  and  _252
REMARK  101  A    between atoms: _252  and  _253
REMARK  102  A    between atoms: _253  and  _254
REMARK  103  A    between atoms: _263  and  _265
REMARK  104  A    between atoms: _265  and  _266
REMARK  105  A    between atoms: _265  and  _268
REMARK  106  A    between atoms: _268  and  _269
REMARK  107  A    between atoms: _269  and  _270
REMARK  108  A    between atoms: _272  and  _274
REMARK  109  A    between atoms: _274  and  _275
REMARK  110  A    between atoms: _274  and  _277
REMARK  111  A    between atoms: _277  and  _278
REMARK  112  A    between atoms: _284  and  _286
REMARK  113  A    between atoms: _286  and  _287
REMARK  114  A    between atoms: _286  and  _289
REMARK  115  A    between atoms: _292  and  _294
REMARK  116  A    between atoms: _294  and  _295
REMARK  117  A    between atoms: _294  and  _297
REMARK  118  A    between atoms: _297  and  _298
REMARK  119  A    between atoms: _298  and  _299
REMARK  120  A    between atoms: _299  and  _300
REMARK  121  A    between atoms: _309  and  _311
REMARK  122  A    between atoms: _311  and  _312
REMARK  123  A    between atoms: _311  and  _314
REMARK  124  A    between atoms: _314  and  _315
REMARK  125  A    between atoms: _320  and  _322
REMARK  126  A    between atoms: _322  and  _323
REMARK  127  A    between atoms: _322  and  _325
REMARK  128  A    between atoms: _325  and  _326
REMARK  129  A    between atoms: _331  and  _332
REMARK  130  A    between atoms: _334  and  _336
REMARK  131  A    between atoms: _336  and  _337
REMARK  132  A    between atoms: _336  and  _339
REMARK  133  A    between atoms: _339  and  _340
REMARK  134  A    between atoms: _340  and  _341
REMARK  135  A    between atoms: _341  and  _342
REMARK  136  A    between atoms: _351  and  _353
REMARK  137  A    between atoms: _353  and  _354
REMARK  138  A    between atoms: _353  and  _356
REMARK  139  A    between atoms: _356  and  _357
REMARK  140  A    between atoms: _362  and  _363
REMARK  141  A    between atoms: _365  and  _367
REMARK  142  A    between atoms: _367  and  _368
REMARK  143  A    between atoms: _367  and  _370
REMARK  144  A    between atoms: _370  and  _371
REMARK  145  A    between atoms: _373  and  _375
REMARK  146  A    between atoms: _375  and  _376
REMARK  147  A    between atoms: _375  and  _378
REMARK  148  A    between atoms: _378  and  _379
REMARK                            x       y       z     vdW  Elec       q    Type
REMARK                         _______ _______ _______ _____ _____    ______ ____
ROOT
ATOM      1  O   HOH     1      79.035  48.159  26.128  0.00  0.00    +0.000 OA
ENDROOT
TORSDOF 0
REMARK  Name = ../refined-set-2016/1toi/1toi_pocket.pdb
REMARK  148 active torsions:
REMARK  status: ('A' for Active; 'I' for Inactive)
REMARK    1  A    between atoms: _1  and  _3
REMARK    2  A    between atoms: _3  and  _4
REMARK    3  A    between atoms: _3  and  _6
REMARK    4  A    between atoms: _6  and  _7
REMARK    5  A    between atoms: _10  and  _12
REMARK    6  A    between atoms: _12  and  _13
REMARK    7  A    between atoms: _12  and  _15
REMARK    8  A    between atoms: _15  and  _16
REMARK    9  A    between atoms: _19  and  _21
REMARK   10  A    between atoms: _21  and  _22
REMARK   11  A    between atoms: _21  and  _24
REMARK   12  A    between atoms: _24  and  _25
REMARK   13  A    between atoms: _28  and  _30
REMARK   14  A    between atoms: _30  and  _31
REMARK   15  A    between atoms: _33  and  _35
REMARK   16  A    between atoms: _35  and  _36
REMARK   17  A    between atoms: _35  and  _38
REMARK   18  A    between atoms: _38  and  _39
REMARK   19  A    between atoms: _42  and  _44
REMARK   20  A    between atoms: _44  and  _45
REMARK   21  A    between atoms: _44  and  _47
REMARK   22  A    between atoms: _47  and  _48
REMARK   23  A    between atoms: _51  and  _53
REMARK   24  A    between atoms: _53  and  _54
REMARK   25  A    between atoms: _56  and  _58
REMARK   26  A    between atoms: _58  and  _59
REMARK   27  A    between atoms: _58  and  _61
REMARK   28  A    between atoms: _61  and  _62
REMARK   29  A    between atoms: _65  and  _67
REMARK   30  A    between atoms: _67  and  _68
REMARK   31  A    between atoms: _70  and  _72
REMARK   32  A    between atoms: _72  and  _73
REMARK   33  A    between atoms: _72  and  _75
REMARK   34  A    between atoms: _75  and  _76
REMARK   35  A    between atoms: _79  and  _81
REMARK   36  A    between atoms: _81  and  _82
REMARK   37  A    between atoms: _84  and  _86
REMARK   38  A    between atoms: _86  and  _87
REMARK   39  A    between atoms: _86  and  _89
REMARK   40  A    between atoms: _89  and  _90
REMARK   41  A    between atoms: _92  and  _94
REMARK   42  A    between atoms: _94  and  _95
REMARK   43  A    between atoms: _97  and  _99
REMARK   44  A    between atoms: _99  and  _100
REMARK   45  A    between atoms: _99  and  _102
REMARK   46  A    between atoms: _102  and  _103
REMARK   47  A    between atoms: _106  and  _108
REMARK   48  A    between atoms: _108  and  _109
REMARK   49  A    between atoms: _108  and  _111
REMARK   50  A    between atoms: _111  and  _112
REMARK   51  A    between atoms: _123  and  _124
REMARK   52  A    between atoms: _129  and  _131
REMARK   53  A    between atoms: _131  and  _132
REMARK   54  A    between atoms: _131  and  _134
REMARK   55  A    between atoms: _134  and  _135
REMARK   56  A    between atoms: _140  and  _142
REMARK   57  A    between atoms: _142  and  _143
REMARK   58  A    between atoms: _142  and  _145
REMARK   59  A    between atoms: _145  and  _146
REMARK   60  A    between atoms: _151  and  _153
REMARK   61  A    between atoms: _153  and  _154
REMARK   62  A    between atoms: _153  and  _156
REMARK   63  A    between atoms: _156  and  _157
REMARK   64  A    between atoms: _163  and  _164
REMARK   65  A    between atoms: _169  and  _171
REMARK   66  A    between atoms: _171  and  _172
REMARK   67  A    between atoms: _175  and  _177
REMARK   68  A    between atoms: _177  and  _178
REMARK   69  A    between atoms: _177  and  _180
REMARK   70  A    between atoms: _180  and  _181
REMARK   71  A    between atoms: _186  and  _187
REMARK   72  A    between atoms: _189  and  _191
REMARK   73  A    between atoms: _191  and  _192
REMARK   74  A    between atoms: _191  and  _194
REMARK   75  A    between atoms: _194  and  _195
REMARK   76  A    between atoms: _197  and  _199
REMARK   77  A    between atoms: _199  and  _200
REMARK   78  A    between atoms: _199  and  _202
REMARK   79  A    between atoms: _202  and  _203
REMARK   80  A    between atoms: _210  and  _211
REMARK   81  A    between atoms: _211  and  _227
REMARK   82  A    between atoms: _212  and  _214
REMARK   83  A    between atoms: _214  and  _215
REMARK   84  A    between atoms: _215  and  _216
REMARK   85  A    between atoms: _220  and  _222
REMARK   86  A    between atoms: _222  and  _223
REMARK   87  A    between atoms: _222  and  _230
REMARK   88  A    between atoms: _223  and  _224
REMARK   89  A    between atoms: _224  and  _225
REMARK   90  A    between atoms: _225  and  _226
REMARK   91  A    between atoms: _226  and  _227
REMARK   92  A    between atoms: _232  and  _234
REMARK   93  A    between atoms: _234  and  _235
REMARK   94  A    between atoms: _234  and  _237
REMARK   95  A    between atoms: _237  and  _238
REMARK   96  A    between atoms: _243  and  _244
REMARK   97  A    between atoms: _246  and  _248
REMARK   98  A    between atoms: _248  and  _249
REMARK   99  A    between atoms: _248  and  _251
REMARK  100  A    between atoms: _251  and  _252
REMARK  101  A    between atoms: _252  and  _253
REMARK  102  A    between atoms: _253  and  _254
REMARK  103  A    between atoms: _263  and  _265
REMARK  104  A    between atoms: _265  and  _266
REMARK  105  A    between atoms: _265  and  _268
REMARK  106  A    between atoms: _268  and  _269
REMARK  107  A    between atoms: _269  and  _270
REMARK  108  A    between atoms: _272  and  _274
REMARK  109  A    between atoms: _274  and  _275
REMARK  110  A    between atoms: _274  and  _277
REMARK  111  A    between atoms: _277  and  _278
REMARK  112  A    between atoms: _284  and  _286
REMARK  113  A    between atoms: _286  and  _287
REMARK  114  A    between atoms: _286  and  _289
REMARK  115  A    between atoms: _292  and  _294
REMARK  116  A    between atoms: _294  and  _295
REMARK  117  A    between atoms: _294  and  _297
REMARK  118  A    between atoms: _297  and  _298
REMARK  119  A    between atoms: _298  and  _299
REMARK  120  A    between atoms: _299  and  _300
REMARK  121  A    between atoms: _309  and  _311
REMARK  122  A    between atoms: _311  and  _312
REMARK  123  A    between atoms: _311  and  _314
REMARK  124  A    between atoms: _314  and  _315
REMARK  125  A    between atoms: _320  and  _322
REMARK  126  A    between atoms: _322  and  _323
REMARK  127  A    between atoms: _322  and  _325
REMARK  128  A    between atoms: _325  and  _326
REMARK  129  A    between atoms: _331  and  _332
REMARK  130  A    between atoms: _334  and  _336
REMARK  131  A    between atoms: _336  and  _337
REMARK  132  A    between atoms: _336  and  _339
REMARK  133  A    between atoms: _339  and  _340
REMARK  134  A    between atoms: _340  and  _341
REMARK  135  A    between atoms: _341  and  _342
REMARK  136  A    between atoms: _351  and  _353
REMARK  137  A    between atoms: _353  and  _354
REMARK  138  A    between atoms: _353  and  _356
REMARK  139  A    between atoms: _356  and  _357
REMARK  140  A    between atoms: _362  and  _363
REMARK  141  A    between atoms: _365  and  _367
REMARK  142  A    between atoms: _367  and  _368
REMARK  143  A    between atoms: _367  and  _370
REMARK  144  A    between atoms: _370  and  _371
REMARK  145  A    between atoms: _373  and  _375
REMARK  146  A    between atoms: _375  and  _376
REMARK  147  A    between atoms: _375  and  _378
REMARK  148  A    between atoms: _378  and  _379
REMARK                            x       y       z     vdW  Elec       q    Type
REMARK                         _______ _______ _______ _____ _____    ______ ____
ROOT
ATOM      1  O   HOH     1      74.500  54.249  25.970  0.00  0.00    +0.000 OA
ENDROOT
TORSDOF 0
REMARK  Name = ../refined-set-2016/1toi/1toi_pocket.pdb
REMARK  148 active torsions:
REMARK  status: ('A' for Active; 'I' for Inactive)
REMARK    1  A    between atoms: _1  and  _3
REMARK    2  A    between atoms: _3  and  _4
REMARK    3  A    between atoms: _3  and  _6
REMARK    4  A    between atoms: _6  and  _7
REMARK    5  A    between atoms: _10  and  _12
REMARK    6  A    between atoms: _12  and  _13
REMARK    7  A    between atoms: _12  and  _15
REMARK    8  A    between atoms: _15  and  _16
REMARK    9  A    between atoms: _19  and  _21
REMARK   10  A    between atoms: _21  and  _22
REMARK   11  A    between atoms: _21  and  _24
REMARK   12  A    between atoms: _24  and  _25
REMARK   13  A    between atoms: _28  and  _30
REMARK   14  A    between atoms: _30  and  _31
REMARK   15  A    between atoms: _33  and  _35
REMARK   16  A    between atoms: _35  and  _36
REMARK   17  A    between atoms: _35  and  _38
REMARK   18  A    between atoms: _38  and  _39
REMARK   19  A    between atoms: _42  and  _44
REMARK   20  A    between atoms: _44  and  _45
REMARK   21  A    between atoms: _44  and  _47
REMARK   22  A    between atoms: _47  and  _48
REMARK   23  A    between atoms: _51  and  _53
REMARK   24  A    between atoms: _53  and  _54
REMARK   25  A    between atoms: _56  and  _58
REMARK   26  A    between atoms: _58  and  _59
REMARK   27  A    between atoms: _58  and  _61
REMARK   28  A    between atoms: _61  and  _62
REMARK   29  A    between atoms: _65  and  _67
REMARK   30  A    between atoms: _67  and  _68
REMARK   31  A    between atoms: _70  and  _72
REMARK   32  A    between atoms: _72  and  _73
REMARK   33  A    between atoms: _72  and  _75
REMARK   34  A    between atoms: _75  and  _76
REMARK   35  A    between atoms: _79  and  _81
REMARK   36  A    between atoms: _81  and  _82
REMARK   37  A    between atoms: _84  and  _86
REMARK   38  A    between atoms: _86  and  _87
REMARK   39  A    between atoms: _86  and  _89
REMARK   40  A    between atoms: _89  and  _90
REMARK   41  A    between atoms: _92  and  _94
REMARK   42  A    between atoms: _94  and  _95
REMARK   43  A    between atoms: _97  and  _99
REMARK   44  A    between atoms: _99  and  _100
REMARK   45  A    between atoms: _99  and  _102
REMARK   46  A    between atoms: _102  and  _103
REMARK   47  A    between atoms: _106  and  _108
REMARK   48  A    between atoms: _108  and  _109
REMARK   49  A    between atoms: _108  and  _111
REMARK   50  A    between atoms: _111  and  _112
REMARK   51  A    between atoms: _123  and  _124
REMARK   52  A    between atoms: _129  and  _131
REMARK   53  A    between atoms: _131  and  _132
REMARK   54  A    between atoms: _131  and  _134
REMARK   55  A    between atoms: _134  and  _135
REMARK   56  A    between atoms: _140  and  _142
REMARK   57  A    between atoms: _142  and  _143
REMARK   58  A    between atoms: _142  and  _145
REMARK   59  A    between atoms: _145  and  _146
REMARK   60  A    between atoms: _151  and  _153
REMARK   61  A    between atoms: _153  and  _154
REMARK   62  A    between atoms: _153  and  _156
REMARK   63  A    between atoms: _156  and  _157
REMARK   64  A    between atoms: _163  and  _164
REMARK   65  A    between atoms: _169  and  _171
REMARK   66  A    between atoms: _171  and  _172
REMARK   67  A    between atoms: _175  and  _177
REMARK   68  A    between atoms: _177  and  _178
REMARK   69  A    between atoms: _177  and  _180
REMARK   70  A    between atoms: _180  and  _181
REMARK   71  A    between atoms: _186  and  _187
REMARK   72  A    between atoms: _189  and  _191
REMARK   73  A    between atoms: _191  and  _192
REMARK   74  A    between atoms: _191  and  _194
REMARK   75  A    between atoms: _194  and  _195
REMARK   76  A    between atoms: _197  and  _199
REMARK   77  A    between atoms: _199  and  _200
REMARK   78  A    between atoms: _199  and  _202
REMARK   79  A    between atoms: _202  and  _203
REMARK   80  A    between atoms: _210  and  _211
REMARK   81  A    between atoms: _211  and  _227
REMARK   82  A    between atoms: _212  and  _214
REMARK   83  A    between atoms: _214  and  _215
REMARK   84  A    between atoms: _215  and  _216
REMARK   85  A    between atoms: _220  and  _222
REMARK   86  A    between atoms: _222  and  _223
REMARK   87  A    between atoms: _222  and  _230
REMARK   88  A    between atoms: _223  and  _224
REMARK   89  A    between atoms: _224  and  _225
REMARK   90  A    between atoms: _225  and  _226
REMARK   91  A    between atoms: _226  and  _227
REMARK   92  A    between atoms: _232  and  _234
REMARK   93  A    between atoms: _234  and  _235
REMARK   94  A    between atoms: _234  and  _237
REMARK   95  A    between atoms: _237  and  _238
REMARK   96  A    between atoms: _243  and  _244
REMARK   97  A    between atoms: _246  and  _248
REMARK   98  A    between atoms: _248  and  _249
REMARK   99  A    between atoms: _248  and  _251
REMARK  100  A    between atoms: _251  and  _252
REMARK  101  A    between atoms: _252  and  _253
REMARK  102  A    between atoms: _253  and  _254
REMARK  103  A    between atoms: _263  and  _265
REMARK  104  A    between atoms: _265  and  _266
REMARK  105  A    between atoms: _265  and  _268
REMARK  106  A    between atoms: _268  and  _269
REMARK  107  A    between atoms: _269  and  _270
REMARK  108  A    between atoms: _272  and  _274
REMARK  109  A    between atoms: _274  and  _275
REMARK  110  A    between atoms: _274  and  _277
REMARK  111  A    between atoms: _277  and  _278
REMARK  112  A    between atoms: _284  and  _286
REMARK  113  A    between atoms: _286  and  _287
REMARK  114  A    between atoms: _286  and  _289
REMARK  115  A    between atoms: _292  and  _294
REMARK  116  A    between atoms: _294  and  _295
REMARK  117  A    between atoms: _294  and  _297
REMARK  118  A    between atoms: _297  and  _298
REMARK  119  A    between atoms: _298  and  _299
REMARK  120  A    between atoms: _299  and  _300
REMARK  121  A    between atoms: _309  and  _311
REMARK  122  A    between atoms: _311  and  _312
REMARK  123  A    between atoms: _311  and  _314
REMARK  124  A    between atoms: _314  and  _315
REMARK  125  A    between atoms: _320  and  _322
REMARK  126  A    between atoms: _322  and  _323
REMARK  127  A    between atoms: _322  and  _325
REMARK  128  A    between atoms: _325  and  _326
REMARK  129  A    between atoms: _331  and  _332
REMARK  130  A    between atoms: _334  and  _336
REMARK  131  A    between atoms: _336  and  _337
REMARK  132  A    between atoms: _336  and  _339
REMARK  133  A    between atoms: _339  and  _340
REMARK  134  A    between atoms: _340  and  _341
REMARK  135  A    between atoms: _341  and  _342
REMARK  136  A    between atoms: _351  and  _353
REMARK  137  A    between atoms: _353  and  _354
REMARK  138  A    between atoms: _353  and  _356
REMARK  139  A    between atoms: _356  and  _357
REMARK  140  A    between atoms: _362  and  _363
REMARK  141  A    between atoms: _365  and  _367
REMARK  142  A    between atoms: _367  and  _368
REMARK  143  A    between atoms: _367  and  _370
REMARK  144  A    between atoms: _370  and  _371
REMARK  145  A    between atoms: _373  and  _375
REMARK  146  A    between atoms: _375  and  _376
REMARK  147  A    between atoms: _375  and  _378
REMARK  148  A    between atoms: _378  and  _379
REMARK                            x       y       z     vdW  Elec       q    Type
REMARK                         _______ _______ _______ _____ _____    ______ ____
ROOT
ATOM      1  O   HOH     1      72.042  55.525  26.939  0.00  0.00    +0.000 OA
ENDROOT
TORSDOF 0
