REMARK  Name = ../refined-set-2016/4bcm/4bcm_pocket.pdb
REMARK  217 active torsions:
REMARK  status: ('A' for Active; 'I' for Inactive)
REMARK    1  A    between atoms: _1  and  _3
REMARK    2  A    between atoms: _3  and  _4
REMARK    3  A    between atoms: _3  and  _6
REMARK    4  A    between atoms: _6  and  _7
REMARK    5  A    between atoms: _7  and  _8
REMARK    6  A    between atoms: _11  and  _13
REMARK    7  A    between atoms: _13  and  _14
REMARK    8  A    between atoms: _13  and  _16
REMARK    9  A    between atoms: _16  and  _17
REMARK   10  A    between atoms: _17  and  _18
REMARK   11  A    between atoms: _18  and  _19
REMARK   12  A    between atoms: _19  and  _20
REMARK   13  A    between atoms: _24  and  _26
REMARK   14  A    between atoms: _26  and  _27
REMARK   15  A    between atoms: _26  and  _29
REMARK   16  A    between atoms: _29  and  _30
REMARK   17  A    between atoms: _33  and  _35
REMARK   18  A    between atoms: _35  and  _36
REMARK   19  A    between atoms: _38  and  _40
REMARK   20  A    between atoms: _40  and  _41
REMARK   21  A    between atoms: _40  and  _43
REMARK   22  A    between atoms: _43  and  _44
REMARK   23  A    between atoms: _44  and  _45
REMARK   24  A    between atoms: _48  and  _50
REMARK   25  A    between atoms: _50  and  _51
REMARK   26  A    between atoms: _53  and  _55
REMARK   27  A    between atoms: _55  and  _56
REMARK   28  A    between atoms: _55  and  _58
REMARK   29  A    between atoms: _58  and  _59
REMARK   30  A    between atoms: _62  and  _64
REMARK   31  A    between atoms: _64  and  _65
REMARK   32  A    between atoms: _64  and  _67
REMARK   33  A    between atoms: _67  and  _68
REMARK   34  A    between atoms: _73  and  _74
REMARK   35  A    between atoms: _76  and  _78
REMARK   36  A    between atoms: _78  and  _79
REMARK   37  A    between atoms: _81  and  _83
REMARK   38  A    between atoms: _83  and  _84
REMARK   39  A    between atoms: _83  and  _86
REMARK   40  A    between atoms: _89  and  _91
REMARK   41  A    between atoms: _91  and  _92
REMARK   42  A    between atoms: _91  and  _94
REMARK   43  A    between atoms: _97  and  _99
REMARK   44  A    between atoms: _99  and  _100
REMARK   45  A    between atoms: _99  and  _102
REMARK   46  A    between atoms: _102  and  _103
REMARK   47  A    between atoms: _108  and  _109
REMARK   48  A    between atoms: _111  and  _113
REMARK   49  A    between atoms: _113  and  _114
REMARK   50  A    between atoms: _113  and  _116
REMARK   51  A    between atoms: _116  and  _117
REMARK   52  A    between atoms: _117  and  _118
REMARK   53  A    between atoms: _118  and  _119
REMARK   54  A    between atoms: _119  and  _120
REMARK   55  A    between atoms: _124  and  _126
REMARK   56  A    between atoms: _126  and  _127
REMARK   57  A    between atoms: _130  and  _132
REMARK   58  A    between atoms: _132  and  _133
REMARK   59  A    between atoms: _132  and  _135
REMARK   60  A    between atoms: _138  and  _140
REMARK   61  A    between atoms: _140  and  _141
REMARK   62  A    between atoms: _140  and  _143
REMARK   63  A    between atoms: _146  and  _148
REMARK   64  A    between atoms: _148  and  _149
REMARK   65  A    between atoms: _152  and  _154
REMARK   66  A    between atoms: _154  and  _155
REMARK   67  A    between atoms: _154  and  _157
REMARK   68  A    between atoms: _157  and  _158
REMARK   69  A    between atoms: _161  and  _163
REMARK   70  A    between atoms: _163  and  _164
REMARK   71  A    between atoms: _163  and  _166
REMARK   72  A    between atoms: _166  and  _167
REMARK   73  A    between atoms: _167  and  _168
REMARK   74  A    between atoms: _168  and  _169
REMARK   75  A    between atoms: _169  and  _170
REMARK   76  A    between atoms: _174  and  _176
REMARK   77  A    between atoms: _176  and  _177
REMARK   78  A    between atoms: _176  and  _179
REMARK   79  A    between atoms: _179  and  _180
REMARK   80  A    between atoms: _180  and  _181
REMARK   81  A    between atoms: _181  and  _182
REMARK   82  A    between atoms: _182  and  _183
REMARK   83  A    between atoms: _187  and  _189
REMARK   84  A    between atoms: _189  and  _190
REMARK   85  A    between atoms: _189  and  _192
REMARK   86  A    between atoms: _192  and  _193
REMARK   87  A    between atoms: _193  and  _194
REMARK   88  A    between atoms: _197  and  _199
REMARK   89  A    between atoms: _199  and  _200
REMARK   90  A    between atoms: _199  and  _202
REMARK   91  A    between atoms: _202  and  _203
REMARK   92  A    between atoms: _206  and  _208
REMARK   93  A    between atoms: _208  and  _209
REMARK   94  A    between atoms: _208  and  _211
REMARK   95  A    between atoms: _211  and  _212
REMARK   96  A    between atoms: _215  and  _217
REMARK   97  A    between atoms: _217  and  _218
REMARK   98  A    between atoms: _217  and  _220
REMARK   99  A    between atoms: _223  and  _225
REMARK  100  A    between atoms: _225  and  _226
REMARK  101  A    between atoms: _225  and  _228
REMARK  102  A    between atoms: _228  and  _229
REMARK  103  A    between atoms: _229  and  _230
REMARK  104  A    between atoms: _230  and  _231
REMARK  105  A    between atoms: _231  and  _232
REMARK  106  A    between atoms: _236  and  _238
REMARK  107  A    between atoms: _238  and  _239
REMARK  108  A    between atoms: _238  and  _241
REMARK  109  A    between atoms: _241  and  _242
REMARK  110  A    between atoms: _245  and  _247
REMARK  111  A    between atoms: _247  and  _248
REMARK  112  A    between atoms: _247  and  _250
REMARK  113  A    between atoms: _250  and  _251
REMARK  114  A    between atoms: _254  and  _256
REMARK  115  A    between atoms: _256  and  _257
REMARK  116  A    between atoms: _256  and  _259
REMARK  117  A    between atoms: _259  and  _260
REMARK  118  A    between atoms: _263  and  _265
REMARK  119  A    between atoms: _265  and  _266
REMARK  120  A    between atoms: _265  and  _268
REMARK  121  A    between atoms: _271  and  _273
REMARK  122  A    between atoms: _273  and  _274
REMARK  123  A    between atoms: _273  and  _276
REMARK  124  A    between atoms: _276  and  _277
REMARK  125  A    between atoms: _283  and  _285
REMARK  126  A    between atoms: _285  and  _286
REMARK  127  A    between atoms: _285  and  _288
REMARK  128  A    between atoms: _288  and  _289
REMARK  129  A    between atoms: _289  and  _290
REMARK  130  A    between atoms: _293  and  _295
REMARK  131  A    between atoms: _295  and  _296
REMARK  132  A    between atoms: _295  and  _298
REMARK  133  A    between atoms: _298  and  _299
REMARK  134  A    between atoms: _305  and  _307
REMARK  135  A    between atoms: _307  and  _308
REMARK  136  A    between atoms: _307  and  _310
REMARK  137  A    between atoms: _310  and  _311
REMARK  138  A    between atoms: _314  and  _316
REMARK  139  A    between atoms: _316  and  _317
REMARK  140  A    between atoms: _316  and  _319
REMARK  141  A    between atoms: _319  and  _320
REMARK  142  A    between atoms: _325  and  _327
REMARK  143  A    between atoms: _327  and  _328
REMARK  144  A    between atoms: _327  and  _330
REMARK  145  A    between atoms: _330  and  _331
REMARK  146  A    between atoms: _331  and  _332
REMARK  147  A    between atoms: _337  and  _339
REMARK  148  A    between atoms: _339  and  _340
REMARK  149  A    between atoms: _339  and  _342
REMARK  150  A    between atoms: _342  and  _343
REMARK  151  A    between atoms: _346  and  _348
REMARK  152  A    between atoms: _348  and  _349
REMARK  153  A    between atoms: _348  and  _351
REMARK  154  A    between atoms: _351  and  _352
REMARK  155  A    between atoms: _355  and  _357
REMARK  156  A    between atoms: _357  and  _358
REMARK  157  A    between atoms: _357  and  _360
REMARK  158  A    between atoms: _360  and  _361
REMARK  159  A    between atoms: _361  and  _362
REMARK  160  A    between atoms: _362  and  _363
REMARK  161  A    between atoms: _363  and  _364
REMARK  162  A    between atoms: _368  and  _370
REMARK  163  A    between atoms: _370  and  _371
REMARK  164  A    between atoms: _370  and  _373
REMARK  165  A    between atoms: _373  and  _374
REMARK  166  A    between atoms: _374  and  _375
REMARK  167  A    between atoms: _375  and  _376
REMARK  168  A    between atoms: _376  and  _377
REMARK  169  A    between atoms: _381  and  _383
REMARK  170  A    between atoms: _383  and  _384
REMARK  171  A    between atoms: _383  and  _386
REMARK  172  A    between atoms: _386  and  _387
REMARK  173  A    between atoms: _394  and  _395
REMARK  174  A    between atoms: _400  and  _402
REMARK  175  A    between atoms: _402  and  _403
REMARK  176  A    between atoms: _402  and  _405
REMARK  177  A    between atoms: _405  and  _406
REMARK  178  A    between atoms: _406  and  _407
REMARK  179  A    between atoms: _412  and  _414
REMARK  180  A    between atoms: _414  and  _415
REMARK  181  A    between atoms: _414  and  _417
REMARK  182  A    between atoms: _417  and  _418
REMARK  183  A    between atoms: _423  and  _425
REMARK  184  A    between atoms: _425  and  _426
REMARK  185  A    between atoms: _425  and  _428
REMARK  186  A    between atoms: _428  and  _429
REMARK  187  A    between atoms: _432  and  _434
REMARK  188  A    between atoms: _434  and  _435
REMARK  189  A    between atoms: _434  and  _437
REMARK  190  A    between atoms: _437  and  _438
REMARK  191  A    between atoms: _441  and  _443
REMARK  192  A    between atoms: _443  and  _444
REMARK  193  A    between atoms: _443  and  _446
REMARK  194  A    between atoms: _446  and  _447
REMARK  195  A    between atoms: _450  and  _452
REMARK  196  A    between atoms: _452  and  _453
REMARK  197  A    between atoms: _452  and  _455
REMARK  198  A    between atoms: _455  and  _456
REMARK  199  A    between atoms: _456  and  _457
REMARK  200  A    between atoms: _457  and  _458
REMARK  201  A    between atoms: _458  and  _459
REMARK  202  A    between atoms: _463  and  _465
REMARK  203  A    between atoms: _465  and  _466
REMARK  204  A    between atoms: _465  and  _468
REMARK  205  A    between atoms: _468  and  _469
REMARK  206  A    between atoms: _472  and  _474
REMARK  207  A    between atoms: _474  and  _475
REMARK  208  A    between atoms: _478  and  _480
REMARK  209  A    between atoms: _480  and  _481
REMARK  210  A    between atoms: _480  and  _483
REMARK  211  A    between atoms: _483  and  _484
REMARK  212  A    between atoms: _487  and  _489
REMARK  213  A    between atoms: _489  and  _490
REMARK  214  A    between atoms: _489  and  _492
REMARK  215  A    between atoms: _492  and  _493
REMARK  216  A    between atoms: _499  and  _501
REMARK  217  A    between atoms: _501  and  _502
REMARK                            x       y       z     vdW  Elec       q    Type
REMARK                         _______ _______ _______ _____ _____    ______ ____
ROOT
ATOM      1  CA  TYR A   8       0.896  10.983  18.793  0.00  0.00    +0.153 C 
ENDROOT
BRANCH   1   2
ATOM      2  C   TYR A   8       1.455  11.177  20.194  0.00  0.00    +0.241 C 
ATOM      3  O   TYR A   8       1.534  10.230  20.978  0.00  0.00    -0.273 OA
ATOM      4  N   GLY A   9       1.838  12.408  20.509  0.00  0.00    -0.295 N 
ATOM      5  H   GLY A   9       1.641  13.192  19.855  0.00  0.00    +0.150 HD
BRANCH   4   6
ATOM      6  CA  GLY A   9       2.528  12.669  21.755  0.00  0.00    +0.176 C 
BRANCH   6   7
ATOM      7  C   GLY A   9       1.762  13.424  22.826  0.00  0.00    +0.243 C 
ATOM      8  N   VAL A  10       2.150  13.180  24.075  0.00  0.00    -0.297 N 
ATOM      9  H   VAL A  10       2.816  12.400  24.247  0.00  0.00    +0.150 HD
ATOM     10  O   GLY A   9       0.849  14.199  22.538  0.00  0.00    -0.273 OA
BRANCH   8  11
ATOM     11  CA  VAL A  10       1.680  13.959  25.208  0.00  0.00    +0.149 C 
BRANCH  11  12
ATOM     12  C   VAL A  10       2.887  14.672  25.790  0.00  0.00    +0.241 C 
ATOM     13  O   VAL A  10       3.885  14.026  26.121  0.00  0.00    -0.273 OA
ATOM     14  N   VAL A  11       2.795  15.993  25.926  0.00  0.00    -0.297 N 
ATOM     15  H   VAL A  11       1.885  16.463  25.744  0.00  0.00    +0.150 HD
BRANCH  14  16
ATOM     16  CA  VAL A  11       3.947  16.794  26.325  0.00  0.00    +0.149 C 
BRANCH  16  17
ATOM     17  C   VAL A  11       3.873  17.289  27.774  0.00  0.00    +0.241 C 
ATOM     18  N   TYR A  12       4.971  17.119  28.508  0.00  0.00    -0.297 N 
ATOM     19  H   TYR A  12       5.783  16.626  28.085  0.00  0.00    +0.150 HD
ATOM     20  O   VAL A  11       2.849  17.808  28.211  0.00  0.00    -0.273 OA
BRANCH  18  21
ATOM     21  CA  TYR A  12       5.080  17.597  29.882  0.00  0.00    +0.153 C 
BRANCH  21  22
ATOM     22  C   TYR A  12       6.307  18.462  30.030  0.00  0.00    +0.241 C 
ATOM     23  N   LYS A  13       6.225  19.443  30.925  0.00  0.00    -0.297 N 
ATOM     24  H   LYS A  13       5.293  19.690  31.316  0.00  0.00    +0.150 HD
ATOM     25  O   TYR A  12       7.310  18.232  29.360  0.00  0.00    -0.273 OA
BRANCH  23  26
ATOM     26  CA  LYS A  13       7.396  20.182  31.376  0.00  0.00    +0.149 C 
BRANCH  26  27
ATOM     27  C   LYS A  13       8.019  19.388  32.519  0.00  0.00    +0.241 C 
ATOM     28  O   LYS A  13       7.319  18.930  33.414  0.00  0.00    -0.273 OA
ATOM     29  N   ALA A  14       9.329  19.198  32.483  0.00  0.00    -0.298 N 
ATOM     30  H   ALA A  14       9.893  19.621  31.718  0.00  0.00    +0.150 HD
BRANCH  29  31
ATOM     31  CA  ALA A  14       9.983  18.400  33.510  0.00  0.00    +0.137 C 
ATOM     32  CB  ALA A  14      10.189  16.954  33.027  0.00  0.00    +0.030 C 
BRANCH  31  33
ATOM     33  C   ALA A  14      11.307  19.028  33.935  0.00  0.00    +0.227 C 
ATOM     34  O   ALA A  14      11.872  19.856  33.228  0.00  0.00    -0.286 OA
ENDBRANCH  31  33
ENDBRANCH  29  31
ENDBRANCH  26  27
BRANCH  26  35
ATOM     35  CB  LYS A  13       7.008  21.593  31.844  0.00  0.00    +0.029 C 
BRANCH  35  36
ATOM     36  CG  LYS A  13       8.159  22.404  32.414  0.00  0.00    +0.000 C 
BRANCH  36  37
ATOM     37  CD  LYS A  13       7.712  23.792  32.833  0.00  0.00    -0.024 C 
BRANCH  37  38
ATOM     38  CE  LYS A  13       8.880  24.572  33.423  0.00  0.00    -0.086 C 
BRANCH  38  39
ATOM     39  NZ  LYS A  13       8.527  25.973  33.815  0.00  0.00    +0.380 N 
ATOM     40  HZ1 LYS A  13       7.773  25.952  34.531  0.00  0.00    -0.089 HD
ATOM     41  HZ2 LYS A  13       9.367  26.444  34.208  0.00  0.00    -0.089 HD
ATOM     42  HZ3 LYS A  13       8.196  26.493  32.977  0.00  0.00    -0.089 HD
ENDBRANCH  38  39
ENDBRANCH  37  38
ENDBRANCH  36  37
ENDBRANCH  35  36
ENDBRANCH  26  35
ENDBRANCH  23  26
ENDBRANCH  21  22
BRANCH  21  43
ATOM     43  CB  TYR A  12       5.243  16.441  30.865  0.00  0.00    +0.055 C 
BRANCH  43  44
ATOM     44  CG  TYR A  12       4.157  15.406  30.813  0.00  0.00    -0.020 A 
ATOM     45  CD2 TYR A  12       3.115  15.419  31.732  0.00  0.00    -0.001 A 
ATOM     46  CE2 TYR A  12       2.130  14.468  31.691  0.00  0.00    +0.036 A 
ATOM     47  CZ  TYR A  12       2.178  13.481  30.725  0.00  0.00    +0.134 A 
ATOM     48  CE1 TYR A  12       3.204  13.446  29.809  0.00  0.00    +0.036 A 
ATOM     49  CD1 TYR A  12       4.185  14.400  29.859  0.00  0.00    -0.001 A 
BRANCH  47  50
ATOM     50  OH  TYR A  12       1.198  12.518  30.668  0.00  0.00    -0.506 OA
ATOM     51  HH  TYR A  12       1.390  11.897  29.921  0.00  0.00    +0.292 HD
ENDBRANCH  47  50
ENDBRANCH  43  44
ENDBRANCH  21  43
ENDBRANCH  18  21
ENDBRANCH  16  17
BRANCH  16  52
ATOM     52  CB  VAL A  11       4.141  17.992  25.377  0.00  0.00    +0.027 C 
ATOM     53  CG2 VAL A  11       5.526  18.596  25.562  0.00  0.00    +0.002 C 
ATOM     54  CG1 VAL A  11       3.936  17.560  23.935  0.00  0.00    +0.002 C 
ENDBRANCH  16  52
ENDBRANCH  14  16
ENDBRANCH  11  12
BRANCH  11  55
ATOM     55  CB  VAL A  10       1.086  13.059  26.296  0.00  0.00    +0.027 C 
ATOM     56  CG2 VAL A  10       0.400  13.904  27.370  0.00  0.00    +0.002 C 
ATOM     57  CG1 VAL A  10       0.124  12.062  25.677  0.00  0.00    +0.002 C 
ENDBRANCH  11  55
ENDBRANCH   8  11
ENDBRANCH   6   7
ENDBRANCH   4   6
ENDBRANCH   1   2
BRANCH   1  59
ATOM     58  C   THR A   7      -1.097  12.086  17.921  0.00  0.00    +0.243 C 
ATOM     59  N   TYR A   8       0.167  12.158  18.329  0.00  0.00    -0.297 N 
ATOM     60  H   TYR A   8       0.650  13.079  18.317  0.00  0.00    +0.150 HD
ATOM     61  O   THR A   7      -1.744  11.038  17.919  0.00  0.00    -0.273 OA
BRANCH  58  62
ATOM     62  CA  THR A   7      -1.724  13.400  17.460  0.00  0.00    +0.176 C 
BRANCH  62  65
ATOM     63  C   GLY A   6      -0.920  14.775  19.275  0.00  0.00    +0.243 C 
ATOM     64  O   GLY A   6      -1.550  14.106  20.098  0.00  0.00    -0.273 OA
ATOM     65  N   THR A   7      -0.948  14.519  17.973  0.00  0.00    -0.295 N 
ATOM     66  H   THR A   7      -0.412  15.121  17.316  0.00  0.00    +0.150 HD
BRANCH  63  67
ATOM     67  CA  GLY A   6      -0.073  15.947  19.727  0.00  0.00    +0.176 C 
BRANCH  67  69
ATOM     68  C   GLU A   5      -0.471  17.288  21.724  0.00  0.00    +0.241 C 
ATOM     69  N   GLY A   6      -0.251  16.109  21.156  0.00  0.00    -0.295 N 
ATOM     70  H   GLY A   6      -0.204  15.265  21.762  0.00  0.00    +0.150 HD
ATOM     71  O   GLU A   5      -0.444  18.356  21.108  0.00  0.00    -0.273 OA
BRANCH  68  72
ATOM     72  CA  GLU A   5      -0.757  17.236  23.222  0.00  0.00    +0.149 C 
BRANCH  72  75
ATOM     73  C   GLY A   4      -0.266  18.604  25.179  0.00  0.00    +0.243 C 
ATOM     74  O   GLY A   4       0.092  17.630  25.841  0.00  0.00    -0.273 OA
ATOM     75  N   GLU A   5      -0.640  18.523  23.904  0.00  0.00    -0.297 N 
ATOM     76  H   GLU A   5      -0.854  19.396  23.381  0.00  0.00    +0.150 HD
BRANCH  73  77
ATOM     77  CA  GLY A   4      -0.295  19.981  25.798  0.00  0.00    +0.176 C 
BRANCH  77  80
ATOM     78  C   ILE A   3       0.909  21.273  27.460  0.00  0.00    +0.241 C 
ATOM     79  O   ILE A   3       0.260  22.288  27.223  0.00  0.00    -0.273 OA
ATOM     80  N   GLY A   4       0.695  20.114  26.846  0.00  0.00    -0.295 N 
ATOM     81  H   GLY A   4       1.253  19.282  27.125  0.00  0.00    +0.150 HD
BRANCH  78  82
ATOM     82  CA  ILE A   3       2.019  21.285  28.500  0.00  0.00    +0.149 C 
BRANCH  82  85
ATOM     83  C   LYS A   2       1.490  20.281  30.647  0.00  0.00    +0.241 C 
ATOM     84  O   LYS A   2       1.222  21.377  31.140  0.00  0.00    -0.273 OA
ATOM     85  N   ILE A   3       1.906  20.141  29.394  0.00  0.00    -0.297 N 
ATOM     86  H   ILE A   3       2.156  19.194  29.044  0.00  0.00    +0.150 HD
BRANCH  83  87
ATOM     87  CA  LYS A   2       1.373  19.008  31.476  0.00  0.00    +0.149 C 
BRANCH  87  89
ATOM     88  C   GLU A   1       2.879  19.585  33.282  0.00  0.00    +0.238 C 
ATOM     89  N   LYS A   2       1.647  19.339  32.860  0.00  0.00    -0.297 N 
ATOM     90  H   LYS A   2       0.859  19.385  33.537  0.00  0.00    +0.150 HD
ATOM     91  O   GLU A   1       3.868  19.445  32.571  0.00  0.00    -0.274 OA
BRANCH  88  92
ATOM     92  CA  GLU A   1       3.017  20.050  34.720  0.00  0.00    +0.145 C 
BRANCH  92  93
ATOM     93  N   GLU A   1       4.384  19.847  35.173  0.00  0.00    -0.238 NA
ATOM     94  H   GLU A   1       5.063  19.396  34.528  0.00  0.00    +0.142 HD
ENDBRANCH  92  93
BRANCH  92  95
ATOM     95  CB  GLU A   1       2.628  21.522  34.822  0.00  0.00    +0.038 C 
BRANCH  95  96
ATOM     96  CG  GLU A   1       3.380  22.434  33.875  0.00  0.00    +0.116 C 
BRANCH  96  97
ATOM     97  CD  GLU A   1       2.870  23.858  33.935  0.00  0.00    +0.365 C 
ATOM     98  OE2 GLU A   1       3.698  24.784  34.077  0.00  0.00    -0.246 OA
ATOM     99  OE1 GLU A   1       1.637  24.048  33.854  0.00  0.00    -0.246 OA
ENDBRANCH  96  97
ENDBRANCH  95  96
ENDBRANCH  92  95
ENDBRANCH  88  92
ENDBRANCH  87  89
BRANCH  87 100
ATOM    100  CB  LYS A   2      -0.029  18.418  31.341  0.00  0.00    +0.029 C 
BRANCH 100 101
ATOM    101  CG  LYS A   2      -0.305  17.819  29.979  0.00  0.00    +0.000 C 
BRANCH 101 102
ATOM    102  CD  LYS A   2      -1.771  17.453  29.808  0.00  0.00    -0.024 C 
BRANCH 102 103
ATOM    103  CE  LYS A   2      -2.011  16.768  28.467  0.00  0.00    -0.086 C 
BRANCH 103 104
ATOM    104  NZ  LYS A   2      -3.455  16.462  28.251  0.00  0.00    +0.380 N 
ATOM    105  HZ1 LYS A   2      -3.791  15.830  29.006  0.00  0.00    -0.089 HD
ATOM    106  HZ2 LYS A   2      -4.002  17.346  28.269  0.00  0.00    -0.089 HD
ATOM    107  HZ3 LYS A   2      -3.575  15.997  27.329  0.00  0.00    -0.089 HD
ENDBRANCH 103 104
ENDBRANCH 102 103
ENDBRANCH 101 102
ENDBRANCH 100 101
ENDBRANCH  87 100
ENDBRANCH  83  87
ENDBRANCH  82  85
BRANCH  82 108
ATOM    108  CB  ILE A   3       3.374  21.317  27.773  0.00  0.00    +0.027 C 
ATOM    109  CG2 ILE A   3       3.313  22.259  26.595  0.00  0.00    +0.002 C 
BRANCH 108 110
ATOM    110  CG1 ILE A   3       4.486  21.766  28.721  0.00  0.00    +0.002 C 
ATOM    111  CD1 ILE A   3       5.852  21.823  28.064  0.00  0.00    +0.000 C 
ENDBRANCH 108 110
ENDBRANCH  82 108
ENDBRANCH  78  82
ENDBRANCH  77  80
ENDBRANCH  73  77
ENDBRANCH  72  75
BRANCH  72 112
ATOM    112  CB  GLU A   5      -2.142  16.629  23.447  0.00  0.00    +0.041 C 
BRANCH 112 113
ATOM    113  CG  GLU A   5      -2.325  15.989  24.808  0.00  0.00    +0.116 C 
BRANCH 113 114
ATOM    114  CD  GLU A   5      -3.633  15.229  24.915  0.00  0.00    +0.365 C 
ATOM    115  OE2 GLU A   5      -3.812  14.486  25.903  0.00  0.00    -0.246 OA
ATOM    116  OE1 GLU A   5      -4.481  15.372  24.005  0.00  0.00    -0.246 OA
ENDBRANCH 113 114
ENDBRANCH 112 113
ENDBRANCH  72 112
ENDBRANCH  68  72
ENDBRANCH  67  69
ENDBRANCH  63  67
ENDBRANCH  62  65
BRANCH  62 117
ATOM    117  CB  THR A   7      -1.829  13.434  15.922  0.00  0.00    +0.137 C 
ATOM    118  CG2 THR A   7      -0.471  13.161  15.280  0.00  0.00    +0.034 C 
BRANCH 117 119
ATOM    119  OG1 THR A   7      -2.777  12.453  15.482  0.00  0.00    -0.382 OA
ATOM    120  HG1 THR A   7      -2.479  11.555  15.772  0.00  0.00    +0.210 HD
ENDBRANCH 117 119
ENDBRANCH  62 117
ENDBRANCH  58  62
ENDBRANCH   1  59
BRANCH   1 121
ATOM    121  CB  TYR A   8       2.039  10.644  17.831  0.00  0.00    +0.055 C 
BRANCH 121 122
ATOM    122  CG  TYR A   8       1.654   9.686  16.726  0.00  0.00    -0.020 A 
ATOM    123  CD2 TYR A   8       1.486   8.331  16.985  0.00  0.00    -0.001 A 
ATOM    124  CE2 TYR A   8       1.135   7.451  15.982  0.00  0.00    +0.036 A 
ATOM    125  CZ  TYR A   8       0.953   7.920  14.697  0.00  0.00    +0.134 A 
ATOM    126  CE1 TYR A   8       1.118   9.260  14.410  0.00  0.00    +0.036 A 
ATOM    127  CD1 TYR A   8       1.466  10.134  15.423  0.00  0.00    -0.001 A 
BRANCH 125 128
ATOM    128  OH  TYR A   8       0.605   7.042  13.695  0.00  0.00    -0.506 OA
ATOM    129  HH  TYR A   8       1.301   7.054  12.991  0.00  0.00    +0.292 HD
ENDBRANCH 125 128
ENDBRANCH 121 122
ENDBRANCH   1 121
TORSDOF 56
REMARK  Name = ../refined-set-2016/4bcm/4bcm_pocket.pdb
REMARK  217 active torsions:
REMARK  status: ('A' for Active; 'I' for Inactive)
REMARK    1  A    between atoms: _1  and  _3
REMARK    2  A    between atoms: _3  and  _4
REMARK    3  A    between atoms: _3  and  _6
REMARK    4  A    between atoms: _6  and  _7
REMARK    5  A    between atoms: _7  and  _8
REMARK    6  A    between atoms: _11  and  _13
REMARK    7  A    between atoms: _13  and  _14
REMARK    8  A    between atoms: _13  and  _16
REMARK    9  A    between atoms: _16  and  _17
REMARK   10  A    between atoms: _17  and  _18
REMARK   11  A    between atoms: _18  and  _19
REMARK   12  A    between atoms: _19  and  _20
REMARK   13  A    between atoms: _24  and  _26
REMARK   14  A    between atoms: _26  and  _27
REMARK   15  A    between atoms: _26  and  _29
REMARK   16  A    between atoms: _29  and  _30
REMARK   17  A    between atoms: _33  and  _35
REMARK   18  A    between atoms: _35  and  _36
REMARK   19  A    between atoms: _38  and  _40
REMARK   20  A    between atoms: _40  and  _41
REMARK   21  A    between atoms: _40  and  _43
REMARK   22  A    between atoms: _43  and  _44
REMARK   23  A    between atoms: _44  and  _45
REMARK   24  A    between atoms: _48  and  _50
REMARK   25  A    between atoms: _50  and  _51
REMARK   26  A    between atoms: _53  and  _55
REMARK   27  A    between atoms: _55  and  _56
REMARK   28  A    between atoms: _55  and  _58
REMARK   29  A    between atoms: _58  and  _59
REMARK   30  A    between atoms: _62  and  _64
REMARK   31  A    between atoms: _64  and  _65
REMARK   32  A    between atoms: _64  and  _67
REMARK   33  A    between atoms: _67  and  _68
REMARK   34  A    between atoms: _73  and  _74
REMARK   35  A    between atoms: _76  and  _78
REMARK   36  A    between atoms: _78  and  _79
REMARK   37  A    between atoms: _81  and  _83
REMARK   38  A    between atoms: _83  and  _84
REMARK   39  A    between atoms: _83  and  _86
REMARK   40  A    between atoms: _89  and  _91
REMARK   41  A    between atoms: _91  and  _92
REMARK   42  A    between atoms: _91  and  _94
REMARK   43  A    between atoms: _97  and  _99
REMARK   44  A    between atoms: _99  and  _100
REMARK   45  A    between atoms: _99  and  _102
REMARK   46  A    between atoms: _102  and  _103
REMARK   47  A    between atoms: _108  and  _109
REMARK   48  A    between atoms: _111  and  _113
REMARK   49  A    between atoms: _113  and  _114
REMARK   50  A    between atoms: _113  and  _116
REMARK   51  A    between atoms: _116  and  _117
REMARK   52  A    between atoms: _117  and  _118
REMARK   53  A    between atoms: _118  and  _119
REMARK   54  A    between atoms: _119  and  _120
REMARK   55  A    between atoms: _124  and  _126
REMARK   56  A    between atoms: _126  and  _127
REMARK   57  A    between atoms: _130  and  _132
REMARK   58  A    between atoms: _132  and  _133
REMARK   59  A    between atoms: _132  and  _135
REMARK   60  A    between atoms: _138  and  _140
REMARK   61  A    between atoms: _140  and  _141
REMARK   62  A    between atoms: _140  and  _143
REMARK   63  A    between atoms: _146  and  _148
REMARK   64  A    between atoms: _148  and  _149
REMARK   65  A    between atoms: _152  and  _154
REMARK   66  A    between atoms: _154  and  _155
REMARK   67  A    between atoms: _154  and  _157
REMARK   68  A    between atoms: _157  and  _158
REMARK   69  A    between atoms: _161  and  _163
REMARK   70  A    between atoms: _163  and  _164
REMARK   71  A    between atoms: _163  and  _166
REMARK   72  A    between atoms: _166  and  _167
REMARK   73  A    between atoms: _167  and  _168
REMARK   74  A    between atoms: _168  and  _169
REMARK   75  A    between atoms: _169  and  _170
REMARK   76  A    between atoms: _174  and  _176
REMARK   77  A    between atoms: _176  and  _177
REMARK   78  A    between atoms: _176  and  _179
REMARK   79  A    between atoms: _179  and  _180
REMARK   80  A    between atoms: _180  and  _181
REMARK   81  A    between atoms: _181  and  _182
REMARK   82  A    between atoms: _182  and  _183
REMARK   83  A    between atoms: _187  and  _189
REMARK   84  A    between atoms: _189  and  _190
REMARK   85  A    between atoms: _189  and  _192
REMARK   86  A    between atoms: _192  and  _193
REMARK   87  A    between atoms: _193  and  _194
REMARK   88  A    between atoms: _197  and  _199
REMARK   89  A    between atoms: _199  and  _200
REMARK   90  A    between atoms: _199  and  _202
REMARK   91  A    between atoms: _202  and  _203
REMARK   92  A    between atoms: _206  and  _208
REMARK   93  A    between atoms: _208  and  _209
REMARK   94  A    between atoms: _208  and  _211
REMARK   95  A    between atoms: _211  and  _212
REMARK   96  A    between atoms: _215  and  _217
REMARK   97  A    between atoms: _217  and  _218
REMARK   98  A    between atoms: _217  and  _220
REMARK   99  A    between atoms: _223  and  _225
REMARK  100  A    between atoms: _225  and  _226
REMARK  101  A    between atoms: _225  and  _228
REMARK  102  A    between atoms: _228  and  _229
REMARK  103  A    between atoms: _229  and  _230
REMARK  104  A    between atoms: _230  and  _231
REMARK  105  A    between atoms: _231  and  _232
REMARK  106  A    between atoms: _236  and  _238
REMARK  107  A    between atoms: _238  and  _239
REMARK  108  A    between atoms: _238  and  _241
REMARK  109  A    between atoms: _241  and  _242
REMARK  110  A    between atoms: _245  and  _247
REMARK  111  A    between atoms: _247  and  _248
REMARK  112  A    between atoms: _247  and  _250
REMARK  113  A    between atoms: _250  and  _251
REMARK  114  A    between atoms: _254  and  _256
REMARK  115  A    between atoms: _256  and  _257
REMARK  116  A    between atoms: _256  and  _259
REMARK  117  A    between atoms: _259  and  _260
REMARK  118  A    between atoms: _263  and  _265
REMARK  119  A    between atoms: _265  and  _266
REMARK  120  A    between atoms: _265  and  _268
REMARK  121  A    between atoms: _271  and  _273
REMARK  122  A    between atoms: _273  and  _274
REMARK  123  A    between atoms: _273  and  _276
REMARK  124  A    between atoms: _276  and  _277
REMARK  125  A    between atoms: _283  and  _285
REMARK  126  A    between atoms: _285  and  _286
REMARK  127  A    between atoms: _285  and  _288
REMARK  128  A    between atoms: _288  and  _289
REMARK  129  A    between atoms: _289  and  _290
REMARK  130  A    between atoms: _293  and  _295
REMARK  131  A    between atoms: _295  and  _296
REMARK  132  A    between atoms: _295  and  _298
REMARK  133  A    between atoms: _298  and  _299
REMARK  134  A    between atoms: _305  and  _307
REMARK  135  A    between atoms: _307  and  _308
REMARK  136  A    between atoms: _307  and  _310
REMARK  137  A    between atoms: _310  and  _311
REMARK  138  A    between atoms: _314  and  _316
REMARK  139  A    between atoms: _316  and  _317
REMARK  140  A    between atoms: _316  and  _319
REMARK  141  A    between atoms: _319  and  _320
REMARK  142  A    between atoms: _325  and  _327
REMARK  143  A    between atoms: _327  and  _328
REMARK  144  A    between atoms: _327  and  _330
REMARK  145  A    between atoms: _330  and  _331
REMARK  146  A    between atoms: _331  and  _332
REMARK  147  A    between atoms: _337  and  _339
REMARK  148  A    between atoms: _339  and  _340
REMARK  149  A    between atoms: _339  and  _342
REMARK  150  A    between atoms: _342  and  _343
REMARK  151  A    between atoms: _346  and  _348
REMARK  152  A    between atoms: _348  and  _349
REMARK  153  A    between atoms: _348  and  _351
REMARK  154  A    between atoms: _351  and  _352
REMARK  155  A    between atoms: _355  and  _357
REMARK  156  A    between atoms: _357  and  _358
REMARK  157  A    between atoms: _357  and  _360
REMARK  158  A    between atoms: _360  and  _361
REMARK  159  A    between atoms: _361  and  _362
REMARK  160  A    between atoms: _362  and  _363
REMARK  161  A    between atoms: _363  and  _364
REMARK  162  A    between atoms: _368  and  _370
REMARK  163  A    between atoms: _370  and  _371
REMARK  164  A    between atoms: _370  and  _373
REMARK  165  A    between atoms: _373  and  _374
REMARK  166  A    between atoms: _374  and  _375
REMARK  167  A    between atoms: _375  and  _376
REMARK  168  A    between atoms: _376  and  _377
REMARK  169  A    between atoms: _381  and  _383
REMARK  170  A    between atoms: _383  and  _384
REMARK  171  A    between atoms: _383  and  _386
REMARK  172  A    between atoms: _386  and  _387
REMARK  173  A    between atoms: _394  and  _395
REMARK  174  A    between atoms: _400  and  _402
REMARK  175  A    between atoms: _402  and  _403
REMARK  176  A    between atoms: _402  and  _405
REMARK  177  A    between atoms: _405  and  _406
REMARK  178  A    between atoms: _406  and  _407
REMARK  179  A    between atoms: _412  and  _414
REMARK  180  A    between atoms: _414  and  _415
REMARK  181  A    between atoms: _414  and  _417
REMARK  182  A    between atoms: _417  and  _418
REMARK  183  A    between atoms: _423  and  _425
REMARK  184  A    between atoms: _425  and  _426
REMARK  185  A    between atoms: _425  and  _428
REMARK  186  A    between atoms: _428  and  _429
REMARK  187  A    between atoms: _432  and  _434
REMARK  188  A    between atoms: _434  and  _435
REMARK  189  A    between atoms: _434  and  _437
REMARK  190  A    between atoms: _437  and  _438
REMARK  191  A    between atoms: _441  and  _443
REMARK  192  A    between atoms: _443  and  _444
REMARK  193  A    between atoms: _443  and  _446
REMARK  194  A    between atoms: _446  and  _447
REMARK  195  A    between atoms: _450  and  _452
REMARK  196  A    between atoms: _452  and  _453
REMARK  197  A    between atoms: _452  and  _455
REMARK  198  A    between atoms: _455  and  _456
REMARK  199  A    between atoms: _456  and  _457
REMARK  200  A    between atoms: _457  and  _458
REMARK  201  A    between atoms: _458  and  _459
REMARK  202  A    between atoms: _463  and  _465
REMARK  203  A    between atoms: _465  and  _466
REMARK  204  A    between atoms: _465  and  _468
REMARK  205  A    between atoms: _468  and  _469
REMARK  206  A    between atoms: _472  and  _474
REMARK  207  A    between atoms: _474  and  _475
REMARK  208  A    between atoms: _478  and  _480
REMARK  209  A    between atoms: _480  and  _481
REMARK  210  A    between atoms: _480  and  _483
REMARK  211  A    between atoms: _483  and  _484
REMARK  212  A    between atoms: _487  and  _489
REMARK  213  A    between atoms: _489  and  _490
REMARK  214  A    between atoms: _489  and  _492
REMARK  215  A    between atoms: _492  and  _493
REMARK  216  A    between atoms: _499  and  _501
REMARK  217  A    between atoms: _501  and  _502
REMARK                            x       y       z     vdW  Elec       q    Type
REMARK                         _______ _______ _______ _____ _____    ______ ____
ROOT
ATOM      1  CA  LEU A   4       9.139  15.455  27.527  0.00  0.00    +0.149 C 
ENDROOT
BRANCH   1   3
ATOM      2  C   ALA A   3       9.907  17.734  27.078  0.00  0.00    +0.241 C 
ATOM      3  N   LEU A   4       9.200  16.883  27.817  0.00  0.00    -0.297 N 
ATOM      4  H   LEU A   4       8.670  17.250  28.633  0.00  0.00    +0.150 HD
ATOM      5  O   ALA A   3      10.613  17.387  26.134  0.00  0.00    -0.273 OA
BRANCH   2   6
ATOM      6  CA  ALA A   3       9.837  19.196  27.485  0.00  0.00    +0.149 C 
ATOM      7  CB  ALA A   3       9.358  20.037  26.341  0.00  0.00    +0.031 C 
BRANCH   6  10
ATOM      8  C   VAL A   2      11.450  19.867  29.166  0.00  0.00    +0.241 C 
ATOM      9  O   VAL A   2      10.576  20.030  30.018  0.00  0.00    -0.273 OA
ATOM     10  N   ALA A   3      11.167  19.604  27.896  0.00  0.00    -0.297 N 
ATOM     11  H   ALA A   3      11.916  19.692  27.180  0.00  0.00    +0.150 HD
BRANCH   8  12
ATOM     12  CA  VAL A   2      12.943  19.981  29.525  0.00  0.00    +0.148 C 
BRANCH  12  14
ATOM     13  C   VAL A   1      13.985  21.610  31.010  0.00  0.00    +0.238 C 
ATOM     14  N   VAL A   2      13.156  20.583  30.836  0.00  0.00    -0.297 N 
ATOM     15  H   VAL A   2      12.646  20.200  31.657  0.00  0.00    +0.150 HD
ATOM     16  O   VAL A   1      14.632  22.115  30.078  0.00  0.00    -0.274 OA
BRANCH  13  17
ATOM     17  CA  VAL A   1      14.123  22.142  32.447  0.00  0.00    +0.145 C 
BRANCH  17  18
ATOM     18  CB  VAL A   1      13.439  23.529  32.570  0.00  0.00    +0.025 C 
ATOM     19  CG2 VAL A   1      13.873  24.213  33.842  0.00  0.00    +0.002 C 
ATOM     20  CG1 VAL A   1      11.932  23.396  32.548  0.00  0.00    +0.002 C 
ENDBRANCH  17  18
BRANCH  17  21
ATOM     21  N   VAL A   1      15.531  22.237  32.795  0.00  0.00    -0.238 NA
ATOM     22  H   VAL A   1      16.032  23.127  32.600  0.00  0.00    +0.142 HD
ENDBRANCH  17  21
ENDBRANCH  13  17
ENDBRANCH  12  14
BRANCH  12  23
ATOM     23  CB  VAL A   2      13.621  18.580  29.432  0.00  0.00    +0.027 C 
ATOM     24  CG2 VAL A   2      12.903  17.562  30.307  0.00  0.00    +0.002 C 
ATOM     25  CG1 VAL A   2      15.088  18.674  29.838  0.00  0.00    +0.002 C 
ENDBRANCH  12  23
ENDBRANCH   8  12
ENDBRANCH   6  10
ENDBRANCH   2   6
ENDBRANCH   1   3
BRANCH   1  26
ATOM     26  C   LEU A   4       7.944  15.130  26.651  0.00  0.00    +0.241 C 
ATOM     27  O   LEU A   4       6.802  15.389  27.024  0.00  0.00    -0.273 OA
ATOM     28  N   LYS A   5       8.209  14.538  25.497  0.00  0.00    -0.297 N 
ATOM     29  H   LYS A   5       9.201  14.390  25.224  0.00  0.00    +0.150 HD
BRANCH  28  30
ATOM     30  CA  LYS A   5       7.156  14.087  24.598  0.00  0.00    +0.149 C 
BRANCH  30  31
ATOM     31  C   LYS A   5       7.023  12.579  24.771  0.00  0.00    +0.241 C 
ATOM     32  N   LYS A   6       5.866  12.138  25.245  0.00  0.00    -0.298 N 
ATOM     33  H   LYS A   6       5.120  12.822  25.485  0.00  0.00    +0.150 HD
ATOM     34  O   LYS A   5       7.964  11.827  24.513  0.00  0.00    -0.273 OA
BRANCH  32  35
ATOM     35  CA  LYS A   6       5.618  10.717  25.437  0.00  0.00    +0.137 C 
BRANCH  35  36
ATOM     36  C   LYS A   6       4.918  10.139  24.217  0.00  0.00    +0.227 C 
ATOM     37  O   LYS A   6       3.948  10.700  23.721  0.00  0.00    -0.286 OA
ENDBRANCH  35  36
BRANCH  35  38
ATOM     38  CB  LYS A   6       4.774  10.475  26.692  0.00  0.00    +0.028 C 
BRANCH  38  39
ATOM     39  CG  LYS A   6       4.447   9.006  26.942  0.00  0.00    -0.000 C 
BRANCH  39  40
ATOM     40  CD  LYS A   6       3.354   8.819  27.998  0.00  0.00    -0.024 C 
BRANCH  40  41
ATOM     41  CE  LYS A   6       3.883   8.996  29.416  0.00  0.00    -0.086 C 
BRANCH  41  42
ATOM     42  NZ  LYS A   6       2.864   8.622  30.453  0.00  0.00    +0.380 N 
ATOM     43  HZ1 LYS A   6       3.269   8.759  31.401  0.00  0.00    -0.089 HD
ATOM     44  HZ2 LYS A   6       2.023   9.224  30.344  0.00  0.00    -0.089 HD
ATOM     45  HZ3 LYS A   6       2.596   7.625  30.330  0.00  0.00    -0.089 HD
ENDBRANCH  41  42
ENDBRANCH  40  41
ENDBRANCH  39  40
ENDBRANCH  38  39
ENDBRANCH  35  38
ENDBRANCH  32  35
ENDBRANCH  30  31
BRANCH  30  46
ATOM     46  CB  LYS A   5       7.557  14.425  23.166  0.00  0.00    +0.029 C 
BRANCH  46  47
ATOM     47  CG  LYS A   5       6.454  14.433  22.140  0.00  0.00    +0.000 C 
BRANCH  47  48
ATOM     48  CD  LYS A   5       6.922  15.199  20.903  0.00  0.00    -0.024 C 
BRANCH  48  49
ATOM     49  CE  LYS A   5       5.939  15.078  19.753  0.00  0.00    -0.086 C 
BRANCH  49  50
ATOM     50  NZ  LYS A   5       6.473  15.706  18.511  0.00  0.00    +0.380 N 
ATOM     51  HZ1 LYS A   5       6.655  16.715  18.685  0.00  0.00    -0.089 HD
ATOM     52  HZ2 LYS A   5       7.359  15.234  18.239  0.00  0.00    -0.089 HD
ATOM     53  HZ3 LYS A   5       5.776  15.605  17.746  0.00  0.00    -0.089 HD
ENDBRANCH  49  50
ENDBRANCH  48  49
ENDBRANCH  47  48
ENDBRANCH  46  47
ENDBRANCH  30  46
ENDBRANCH  28  30
ENDBRANCH   1  26
BRANCH   1  54
ATOM     54  CB  LEU A   4       8.999  14.655  28.816  0.00  0.00    +0.029 C 
BRANCH  54  55
ATOM     55  CG  LEU A   4      10.178  14.574  29.776  0.00  0.00    +0.002 C 
ATOM     56  CD2 LEU A   4       9.731  13.881  31.040  0.00  0.00    +0.000 C 
ATOM     57  CD1 LEU A   4      11.344  13.835  29.144  0.00  0.00    +0.000 C 
ENDBRANCH  54  55
ENDBRANCH   1  54
TORSDOF 26
REMARK  Name = ../refined-set-2016/4bcm/4bcm_pocket.pdb
REMARK  217 active torsions:
REMARK  status: ('A' for Active; 'I' for Inactive)
REMARK    1  A    between atoms: _1  and  _3
REMARK    2  A    between atoms: _3  and  _4
REMARK    3  A    between atoms: _3  and  _6
REMARK    4  A    between atoms: _6  and  _7
REMARK    5  A    between atoms: _7  and  _8
REMARK    6  A    between atoms: _11  and  _13
REMARK    7  A    between atoms: _13  and  _14
REMARK    8  A    between atoms: _13  and  _16
REMARK    9  A    between atoms: _16  and  _17
REMARK   10  A    between atoms: _17  and  _18
REMARK   11  A    between atoms: _18  and  _19
REMARK   12  A    between atoms: _19  and  _20
REMARK   13  A    between atoms: _24  and  _26
REMARK   14  A    between atoms: _26  and  _27
REMARK   15  A    between atoms: _26  and  _29
REMARK   16  A    between atoms: _29  and  _30
REMARK   17  A    between atoms: _33  and  _35
REMARK   18  A    between atoms: _35  and  _36
REMARK   19  A    between atoms: _38  and  _40
REMARK   20  A    between atoms: _40  and  _41
REMARK   21  A    between atoms: _40  and  _43
REMARK   22  A    between atoms: _43  and  _44
REMARK   23  A    between atoms: _44  and  _45
REMARK   24  A    between atoms: _48  and  _50
REMARK   25  A    between atoms: _50  and  _51
REMARK   26  A    between atoms: _53  and  _55
REMARK   27  A    between atoms: _55  and  _56
REMARK   28  A    between atoms: _55  and  _58
REMARK   29  A    between atoms: _58  and  _59
REMARK   30  A    between atoms: _62  and  _64
REMARK   31  A    between atoms: _64  and  _65
REMARK   32  A    between atoms: _64  and  _67
REMARK   33  A    between atoms: _67  and  _68
REMARK   34  A    between atoms: _73  and  _74
REMARK   35  A    between atoms: _76  and  _78
REMARK   36  A    between atoms: _78  and  _79
REMARK   37  A    between atoms: _81  and  _83
REMARK   38  A    between atoms: _83  and  _84
REMARK   39  A    between atoms: _83  and  _86
REMARK   40  A    between atoms: _89  and  _91
REMARK   41  A    between atoms: _91  and  _92
REMARK   42  A    between atoms: _91  and  _94
REMARK   43  A    between atoms: _97  and  _99
REMARK   44  A    between atoms: _99  and  _100
REMARK   45  A    between atoms: _99  and  _102
REMARK   46  A    between atoms: _102  and  _103
REMARK   47  A    between atoms: _108  and  _109
REMARK   48  A    between atoms: _111  and  _113
REMARK   49  A    between atoms: _113  and  _114
REMARK   50  A    between atoms: _113  and  _116
REMARK   51  A    between atoms: _116  and  _117
REMARK   52  A    between atoms: _117  and  _118
REMARK   53  A    between atoms: _118  and  _119
REMARK   54  A    between atoms: _119  and  _120
REMARK   55  A    between atoms: _124  and  _126
REMARK   56  A    between atoms: _126  and  _127
REMARK   57  A    between atoms: _130  and  _132
REMARK   58  A    between atoms: _132  and  _133
REMARK   59  A    between atoms: _132  and  _135
REMARK   60  A    between atoms: _138  and  _140
REMARK   61  A    between atoms: _140  and  _141
REMARK   62  A    between atoms: _140  and  _143
REMARK   63  A    between atoms: _146  and  _148
REMARK   64  A    between atoms: _148  and  _149
REMARK   65  A    between atoms: _152  and  _154
REMARK   66  A    between atoms: _154  and  _155
REMARK   67  A    between atoms: _154  and  _157
REMARK   68  A    between atoms: _157  and  _158
REMARK   69  A    between atoms: _161  and  _163
REMARK   70  A    between atoms: _163  and  _164
REMARK   71  A    between atoms: _163  and  _166
REMARK   72  A    between atoms: _166  and  _167
REMARK   73  A    between atoms: _167  and  _168
REMARK   74  A    between atoms: _168  and  _169
REMARK   75  A    between atoms: _169  and  _170
REMARK   76  A    between atoms: _174  and  _176
REMARK   77  A    between atoms: _176  and  _177
REMARK   78  A    between atoms: _176  and  _179
REMARK   79  A    between atoms: _179  and  _180
REMARK   80  A    between atoms: _180  and  _181
REMARK   81  A    between atoms: _181  and  _182
REMARK   82  A    between atoms: _182  and  _183
REMARK   83  A    between atoms: _187  and  _189
REMARK   84  A    between atoms: _189  and  _190
REMARK   85  A    between atoms: _189  and  _192
REMARK   86  A    between atoms: _192  and  _193
REMARK   87  A    between atoms: _193  and  _194
REMARK   88  A    between atoms: _197  and  _199
REMARK   89  A    between atoms: _199  and  _200
REMARK   90  A    between atoms: _199  and  _202
REMARK   91  A    between atoms: _202  and  _203
REMARK   92  A    between atoms: _206  and  _208
REMARK   93  A    between atoms: _208  and  _209
REMARK   94  A    between atoms: _208  and  _211
REMARK   95  A    between atoms: _211  and  _212
REMARK   96  A    between atoms: _215  and  _217
REMARK   97  A    between atoms: _217  and  _218
REMARK   98  A    between atoms: _217  and  _220
REMARK   99  A    between atoms: _223  and  _225
REMARK  100  A    between atoms: _225  and  _226
REMARK  101  A    between atoms: _225  and  _228
REMARK  102  A    between atoms: _228  and  _229
REMARK  103  A    between atoms: _229  and  _230
REMARK  104  A    between atoms: _230  and  _231
REMARK  105  A    between atoms: _231  and  _232
REMARK  106  A    between atoms: _236  and  _238
REMARK  107  A    between atoms: _238  and  _239
REMARK  108  A    between atoms: _238  and  _241
REMARK  109  A    between atoms: _241  and  _242
REMARK  110  A    between atoms: _245  and  _247
REMARK  111  A    between atoms: _247  and  _248
REMARK  112  A    between atoms: _247  and  _250
REMARK  113  A    between atoms: _250  and  _251
REMARK  114  A    between atoms: _254  and  _256
REMARK  115  A    between atoms: _256  and  _257
REMARK  116  A    between atoms: _256  and  _259
REMARK  117  A    between atoms: _259  and  _260
REMARK  118  A    between atoms: _263  and  _265
REMARK  119  A    between atoms: _265  and  _266
REMARK  120  A    between atoms: _265  and  _268
REMARK  121  A    between atoms: _271  and  _273
REMARK  122  A    between atoms: _273  and  _274
REMARK  123  A    between atoms: _273  and  _276
REMARK  124  A    between atoms: _276  and  _277
REMARK  125  A    between atoms: _283  and  _285
REMARK  126  A    between atoms: _285  and  _286
REMARK  127  A    between atoms: _285  and  _288
REMARK  128  A    between atoms: _288  and  _289
REMARK  129  A    between atoms: _289  and  _290
REMARK  130  A    between atoms: _293  and  _295
REMARK  131  A    between atoms: _295  and  _296
REMARK  132  A    between atoms: _295  and  _298
REMARK  133  A    between atoms: _298  and  _299
REMARK  134  A    between atoms: _305  and  _307
REMARK  135  A    between atoms: _307  and  _308
REMARK  136  A    between atoms: _307  and  _310
REMARK  137  A    between atoms: _310  and  _311
REMARK  138  A    between atoms: _314  and  _316
REMARK  139  A    between atoms: _316  and  _317
REMARK  140  A    between atoms: _316  and  _319
REMARK  141  A    between atoms: _319  and  _320
REMARK  142  A    between atoms: _325  and  _327
REMARK  143  A    between atoms: _327  and  _328
REMARK  144  A    between atoms: _327  and  _330
REMARK  145  A    between atoms: _330  and  _331
REMARK  146  A    between atoms: _331  and  _332
REMARK  147  A    between atoms: _337  and  _339
REMARK  148  A    between atoms: _339  and  _340
REMARK  149  A    between atoms: _339  and  _342
REMARK  150  A    between atoms: _342  and  _343
REMARK  151  A    between atoms: _346  and  _348
REMARK  152  A    between atoms: _348  and  _349
REMARK  153  A    between atoms: _348  and  _351
REMARK  154  A    between atoms: _351  and  _352
REMARK  155  A    between atoms: _355  and  _357
REMARK  156  A    between atoms: _357  and  _358
REMARK  157  A    between atoms: _357  and  _360
REMARK  158  A    between atoms: _360  and  _361
REMARK  159  A    between atoms: _361  and  _362
REMARK  160  A    between atoms: _362  and  _363
REMARK  161  A    between atoms: _363  and  _364
REMARK  162  A    between atoms: _368  and  _370
REMARK  163  A    between atoms: _370  and  _371
REMARK  164  A    between atoms: _370  and  _373
REMARK  165  A    between atoms: _373  and  _374
REMARK  166  A    between atoms: _374  and  _375
REMARK  167  A    between atoms: _375  and  _376
REMARK  168  A    between atoms: _376  and  _377
REMARK  169  A    between atoms: _381  and  _383
REMARK  170  A    between atoms: _383  and  _384
REMARK  171  A    between atoms: _383  and  _386
REMARK  172  A    between atoms: _386  and  _387
REMARK  173  A    between atoms: _394  and  _395
REMARK  174  A    between atoms: _400  and  _402
REMARK  175  A    between atoms: _402  and  _403
REMARK  176  A    between atoms: _402  and  _405
REMARK  177  A    between atoms: _405  and  _406
REMARK  178  A    between atoms: _406  and  _407
REMARK  179  A    between atoms: _412  and  _414
REMARK  180  A    between atoms: _414  and  _415
REMARK  181  A    between atoms: _414  and  _417
REMARK  182  A    between atoms: _417  and  _418
REMARK  183  A    between atoms: _423  and  _425
REMARK  184  A    between atoms: _425  and  _426
REMARK  185  A    between atoms: _425  and  _428
REMARK  186  A    between atoms: _428  and  _429
REMARK  187  A    between atoms: _432  and  _434
REMARK  188  A    between atoms: _434  and  _435
REMARK  189  A    between atoms: _434  and  _437
REMARK  190  A    between atoms: _437  and  _438
REMARK  191  A    between atoms: _441  and  _443
REMARK  192  A    between atoms: _443  and  _444
REMARK  193  A    between atoms: _443  and  _446
REMARK  194  A    between atoms: _446  and  _447
REMARK  195  A    between atoms: _450  and  _452
REMARK  196  A    between atoms: _452  and  _453
REMARK  197  A    between atoms: _452  and  _455
REMARK  198  A    between atoms: _455  and  _456
REMARK  199  A    between atoms: _456  and  _457
REMARK  200  A    between atoms: _457  and  _458
REMARK  201  A    between atoms: _458  and  _459
REMARK  202  A    between atoms: _463  and  _465
REMARK  203  A    between atoms: _465  and  _466
REMARK  204  A    between atoms: _465  and  _468
REMARK  205  A    between atoms: _468  and  _469
REMARK  206  A    between atoms: _472  and  _474
REMARK  207  A    between atoms: _474  and  _475
REMARK  208  A    between atoms: _478  and  _480
REMARK  209  A    between atoms: _480  and  _481
REMARK  210  A    between atoms: _480  and  _483
REMARK  211  A    between atoms: _483  and  _484
REMARK  212  A    between atoms: _487  and  _489
REMARK  213  A    between atoms: _489  and  _490
REMARK  214  A    between atoms: _489  and  _492
REMARK  215  A    between atoms: _492  and  _493
REMARK  216  A    between atoms: _499  and  _501
REMARK  217  A    between atoms: _501  and  _502
REMARK                            x       y       z     vdW  Elec       q    Type
REMARK                         _______ _______ _______ _____ _____    ______ ____
ROOT
ATOM      1  CA  GLU A   1      11.175  13.290  13.744  0.00  0.00    +0.134 C 
ENDROOT
BRANCH   1   2
ATOM      2  N   GLU A   1      10.881  12.198  12.831  0.00  0.00    -0.239 NA
ATOM      3  H   GLU A   1       9.980  11.688  12.929  0.00  0.00    +0.142 HD
ENDBRANCH   1   2
BRANCH   1   4
ATOM      4  C   GLU A   1      12.503  13.098  14.470  0.00  0.00    +0.224 C 
ATOM      5  O   GLU A   1      13.308  14.002  14.548  0.00  0.00    -0.287 OA
ENDBRANCH   1   4
BRANCH   1   6
ATOM      6  CB  GLU A   1      10.043  13.440  14.755  0.00  0.00    +0.037 C 
BRANCH   6   7
ATOM      7  CG  GLU A   1      10.270  14.561  15.753  0.00  0.00    +0.116 C 
BRANCH   7   8
ATOM      8  CD  GLU A   1       9.073  14.754  16.656  0.00  0.00    +0.365 C 
ATOM      9  OE2 GLU A   1       9.049  15.746  17.409  0.00  0.00    -0.246 OA
ATOM     10  OE1 GLU A   1       8.150  13.914  16.605  0.00  0.00    -0.246 OA
ENDBRANCH   7   8
ENDBRANCH   6   7
ENDBRANCH   1   6
TORSDOF 5
REMARK  Name = ../refined-set-2016/4bcm/4bcm_pocket.pdb
REMARK  217 active torsions:
REMARK  status: ('A' for Active; 'I' for Inactive)
REMARK    1  A    between atoms: _1  and  _3
REMARK    2  A    between atoms: _3  and  _4
REMARK    3  A    between atoms: _3  and  _6
REMARK    4  A    between atoms: _6  and  _7
REMARK    5  A    between atoms: _7  and  _8
REMARK    6  A    between atoms: _11  and  _13
REMARK    7  A    between atoms: _13  and  _14
REMARK    8  A    between atoms: _13  and  _16
REMARK    9  A    between atoms: _16  and  _17
REMARK   10  A    between atoms: _17  and  _18
REMARK   11  A    between atoms: _18  and  _19
REMARK   12  A    between atoms: _19  and  _20
REMARK   13  A    between atoms: _24  and  _26
REMARK   14  A    between atoms: _26  and  _27
REMARK   15  A    between atoms: _26  and  _29
REMARK   16  A    between atoms: _29  and  _30
REMARK   17  A    between atoms: _33  and  _35
REMARK   18  A    between atoms: _35  and  _36
REMARK   19  A    between atoms: _38  and  _40
REMARK   20  A    between atoms: _40  and  _41
REMARK   21  A    between atoms: _40  and  _43
REMARK   22  A    between atoms: _43  and  _44
REMARK   23  A    between atoms: _44  and  _45
REMARK   24  A    between atoms: _48  and  _50
REMARK   25  A    between atoms: _50  and  _51
REMARK   26  A    between atoms: _53  and  _55
REMARK   27  A    between atoms: _55  and  _56
REMARK   28  A    between atoms: _55  and  _58
REMARK   29  A    between atoms: _58  and  _59
REMARK   30  A    between atoms: _62  and  _64
REMARK   31  A    between atoms: _64  and  _65
REMARK   32  A    between atoms: _64  and  _67
REMARK   33  A    between atoms: _67  and  _68
REMARK   34  A    between atoms: _73  and  _74
REMARK   35  A    between atoms: _76  and  _78
REMARK   36  A    between atoms: _78  and  _79
REMARK   37  A    between atoms: _81  and  _83
REMARK   38  A    between atoms: _83  and  _84
REMARK   39  A    between atoms: _83  and  _86
REMARK   40  A    between atoms: _89  and  _91
REMARK   41  A    between atoms: _91  and  _92
REMARK   42  A    between atoms: _91  and  _94
REMARK   43  A    between atoms: _97  and  _99
REMARK   44  A    between atoms: _99  and  _100
REMARK   45  A    between atoms: _99  and  _102
REMARK   46  A    between atoms: _102  and  _103
REMARK   47  A    between atoms: _108  and  _109
REMARK   48  A    between atoms: _111  and  _113
REMARK   49  A    between atoms: _113  and  _114
REMARK   50  A    between atoms: _113  and  _116
REMARK   51  A    between atoms: _116  and  _117
REMARK   52  A    between atoms: _117  and  _118
REMARK   53  A    between atoms: _118  and  _119
REMARK   54  A    between atoms: _119  and  _120
REMARK   55  A    between atoms: _124  and  _126
REMARK   56  A    between atoms: _126  and  _127
REMARK   57  A    between atoms: _130  and  _132
REMARK   58  A    between atoms: _132  and  _133
REMARK   59  A    between atoms: _132  and  _135
REMARK   60  A    between atoms: _138  and  _140
REMARK   61  A    between atoms: _140  and  _141
REMARK   62  A    between atoms: _140  and  _143
REMARK   63  A    between atoms: _146  and  _148
REMARK   64  A    between atoms: _148  and  _149
REMARK   65  A    between atoms: _152  and  _154
REMARK   66  A    between atoms: _154  and  _155
REMARK   67  A    between atoms: _154  and  _157
REMARK   68  A    between atoms: _157  and  _158
REMARK   69  A    between atoms: _161  and  _163
REMARK   70  A    between atoms: _163  and  _164
REMARK   71  A    between atoms: _163  and  _166
REMARK   72  A    between atoms: _166  and  _167
REMARK   73  A    between atoms: _167  and  _168
REMARK   74  A    between atoms: _168  and  _169
REMARK   75  A    between atoms: _169  and  _170
REMARK   76  A    between atoms: _174  and  _176
REMARK   77  A    between atoms: _176  and  _177
REMARK   78  A    between atoms: _176  and  _179
REMARK   79  A    between atoms: _179  and  _180
REMARK   80  A    between atoms: _180  and  _181
REMARK   81  A    between atoms: _181  and  _182
REMARK   82  A    between atoms: _182  and  _183
REMARK   83  A    between atoms: _187  and  _189
REMARK   84  A    between atoms: _189  and  _190
REMARK   85  A    between atoms: _189  and  _192
REMARK   86  A    between atoms: _192  and  _193
REMARK   87  A    between atoms: _193  and  _194
REMARK   88  A    between atoms: _197  and  _199
REMARK   89  A    between atoms: _199  and  _200
REMARK   90  A    between atoms: _199  and  _202
REMARK   91  A    between atoms: _202  and  _203
REMARK   92  A    between atoms: _206  and  _208
REMARK   93  A    between atoms: _208  and  _209
REMARK   94  A    between atoms: _208  and  _211
REMARK   95  A    between atoms: _211  and  _212
REMARK   96  A    between atoms: _215  and  _217
REMARK   97  A    between atoms: _217  and  _218
REMARK   98  A    between atoms: _217  and  _220
REMARK   99  A    between atoms: _223  and  _225
REMARK  100  A    between atoms: _225  and  _226
REMARK  101  A    between atoms: _225  and  _228
REMARK  102  A    between atoms: _228  and  _229
REMARK  103  A    between atoms: _229  and  _230
REMARK  104  A    between atoms: _230  and  _231
REMARK  105  A    between atoms: _231  and  _232
REMARK  106  A    between atoms: _236  and  _238
REMARK  107  A    between atoms: _238  and  _239
REMARK  108  A    between atoms: _238  and  _241
REMARK  109  A    between atoms: _241  and  _242
REMARK  110  A    between atoms: _245  and  _247
REMARK  111  A    between atoms: _247  and  _248
REMARK  112  A    between atoms: _247  and  _250
REMARK  113  A    between atoms: _250  and  _251
REMARK  114  A    between atoms: _254  and  _256
REMARK  115  A    between atoms: _256  and  _257
REMARK  116  A    between atoms: _256  and  _259
REMARK  117  A    between atoms: _259  and  _260
REMARK  118  A    between atoms: _263  and  _265
REMARK  119  A    between atoms: _265  and  _266
REMARK  120  A    between atoms: _265  and  _268
REMARK  121  A    between atoms: _271  and  _273
REMARK  122  A    between atoms: _273  and  _274
REMARK  123  A    between atoms: _273  and  _276
REMARK  124  A    between atoms: _276  and  _277
REMARK  125  A    between atoms: _283  and  _285
REMARK  126  A    between atoms: _285  and  _286
REMARK  127  A    between atoms: _285  and  _288
REMARK  128  A    between atoms: _288  and  _289
REMARK  129  A    between atoms: _289  and  _290
REMARK  130  A    between atoms: _293  and  _295
REMARK  131  A    between atoms: _295  and  _296
REMARK  132  A    between atoms: _295  and  _298
REMARK  133  A    between atoms: _298  and  _299
REMARK  134  A    between atoms: _305  and  _307
REMARK  135  A    between atoms: _307  and  _308
REMARK  136  A    between atoms: _307  and  _310
REMARK  137  A    between atoms: _310  and  _311
REMARK  138  A    between atoms: _314  and  _316
REMARK  139  A    between atoms: _316  and  _317
REMARK  140  A    between atoms: _316  and  _319
REMARK  141  A    between atoms: _319  and  _320
REMARK  142  A    between atoms: _325  and  _327
REMARK  143  A    between atoms: _327  and  _328
REMARK  144  A    between atoms: _327  and  _330
REMARK  145  A    between atoms: _330  and  _331
REMARK  146  A    between atoms: _331  and  _332
REMARK  147  A    between atoms: _337  and  _339
REMARK  148  A    between atoms: _339  and  _340
REMARK  149  A    between atoms: _339  and  _342
REMARK  150  A    between atoms: _342  and  _343
REMARK  151  A    between atoms: _346  and  _348
REMARK  152  A    between atoms: _348  and  _349
REMARK  153  A    between atoms: _348  and  _351
REMARK  154  A    between atoms: _351  and  _352
REMARK  155  A    between atoms: _355  and  _357
REMARK  156  A    between atoms: _357  and  _358
REMARK  157  A    between atoms: _357  and  _360
REMARK  158  A    between atoms: _360  and  _361
REMARK  159  A    between atoms: _361  and  _362
REMARK  160  A    between atoms: _362  and  _363
REMARK  161  A    between atoms: _363  and  _364
REMARK  162  A    between atoms: _368  and  _370
REMARK  163  A    between atoms: _370  and  _371
REMARK  164  A    between atoms: _370  and  _373
REMARK  165  A    between atoms: _373  and  _374
REMARK  166  A    between atoms: _374  and  _375
REMARK  167  A    between atoms: _375  and  _376
REMARK  168  A    between atoms: _376  and  _377
REMARK  169  A    between atoms: _381  and  _383
REMARK  170  A    between atoms: _383  and  _384
REMARK  171  A    between atoms: _383  and  _386
REMARK  172  A    between atoms: _386  and  _387
REMARK  173  A    between atoms: _394  and  _395
REMARK  174  A    between atoms: _400  and  _402
REMARK  175  A    between atoms: _402  and  _403
REMARK  176  A    between atoms: _402  and  _405
REMARK  177  A    between atoms: _405  and  _406
REMARK  178  A    between atoms: _406  and  _407
REMARK  179  A    between atoms: _412  and  _414
REMARK  180  A    between atoms: _414  and  _415
REMARK  181  A    between atoms: _414  and  _417
REMARK  182  A    between atoms: _417  and  _418
REMARK  183  A    between atoms: _423  and  _425
REMARK  184  A    between atoms: _425  and  _426
REMARK  185  A    between atoms: _425  and  _428
REMARK  186  A    between atoms: _428  and  _429
REMARK  187  A    between atoms: _432  and  _434
REMARK  188  A    between atoms: _434  and  _435
REMARK  189  A    between atoms: _434  and  _437
REMARK  190  A    between atoms: _437  and  _438
REMARK  191  A    between atoms: _441  and  _443
REMARK  192  A    between atoms: _443  and  _444
REMARK  193  A    between atoms: _443  and  _446
REMARK  194  A    between atoms: _446  and  _447
REMARK  195  A    between atoms: _450  and  _452
REMARK  196  A    between atoms: _452  and  _453
REMARK  197  A    between atoms: _452  and  _455
REMARK  198  A    between atoms: _455  and  _456
REMARK  199  A    between atoms: _456  and  _457
REMARK  200  A    between atoms: _457  and  _458
REMARK  201  A    between atoms: _458  and  _459
REMARK  202  A    between atoms: _463  and  _465
REMARK  203  A    between atoms: _465  and  _466
REMARK  204  A    between atoms: _465  and  _468
REMARK  205  A    between atoms: _468  and  _469
REMARK  206  A    between atoms: _472  and  _474
REMARK  207  A    between atoms: _474  and  _475
REMARK  208  A    between atoms: _478  and  _480
REMARK  209  A    between atoms: _480  and  _481
REMARK  210  A    between atoms: _480  and  _483
REMARK  211  A    between atoms: _483  and  _484
REMARK  212  A    between atoms: _487  and  _489
REMARK  213  A    between atoms: _489  and  _490
REMARK  214  A    between atoms: _489  and  _492
REMARK  215  A    between atoms: _492  and  _493
REMARK  216  A    between atoms: _499  and  _501
REMARK  217  A    between atoms: _501  and  _502
REMARK                            x       y       z     vdW  Elec       q    Type
REMARK                         _______ _______ _______ _____ _____    ______ ____
ROOT
ATOM      1  CA  LEU A   1      16.198  16.097  14.437  0.00  0.00    +0.133 C 
ENDROOT
BRANCH   1   2
ATOM      2  N   LEU A   1      15.920  15.137  13.377  0.00  0.00    -0.239 NA
ATOM      3  H   LEU A   1      15.219  14.389  13.552  0.00  0.00    +0.142 HD
ENDBRANCH   1   2
BRANCH   1   4
ATOM      4  C   LEU A   1      17.594  15.901  15.024  0.00  0.00    +0.224 C 
ATOM      5  O   LEU A   1      18.210  16.847  15.501  0.00  0.00    -0.287 OA
ENDBRANCH   1   4
BRANCH   1   6
ATOM      6  CB  LEU A   1      15.150  15.945  15.528  0.00  0.00    +0.025 C 
BRANCH   6   7
ATOM      7  CG  LEU A   1      14.451  17.178  16.086  0.00  0.00    +0.002 C 
ATOM      8  CD2 LEU A   1      13.015  16.808  16.340  0.00  0.00    +0.000 C 
ATOM      9  CD1 LEU A   1      14.561  18.407  15.191  0.00  0.00    +0.000 C 
ENDBRANCH   6   7
ENDBRANCH   1   6
TORSDOF 4
REMARK  Name = ../refined-set-2016/4bcm/4bcm_pocket.pdb
REMARK  217 active torsions:
REMARK  status: ('A' for Active; 'I' for Inactive)
REMARK    1  A    between atoms: _1  and  _3
REMARK    2  A    between atoms: _3  and  _4
REMARK    3  A    between atoms: _3  and  _6
REMARK    4  A    between atoms: _6  and  _7
REMARK    5  A    between atoms: _7  and  _8
REMARK    6  A    between atoms: _11  and  _13
REMARK    7  A    between atoms: _13  and  _14
REMARK    8  A    between atoms: _13  and  _16
REMARK    9  A    between atoms: _16  and  _17
REMARK   10  A    between atoms: _17  and  _18
REMARK   11  A    between atoms: _18  and  _19
REMARK   12  A    between atoms: _19  and  _20
REMARK   13  A    between atoms: _24  and  _26
REMARK   14  A    between atoms: _26  and  _27
REMARK   15  A    between atoms: _26  and  _29
REMARK   16  A    between atoms: _29  and  _30
REMARK   17  A    between atoms: _33  and  _35
REMARK   18  A    between atoms: _35  and  _36
REMARK   19  A    between atoms: _38  and  _40
REMARK   20  A    between atoms: _40  and  _41
REMARK   21  A    between atoms: _40  and  _43
REMARK   22  A    between atoms: _43  and  _44
REMARK   23  A    between atoms: _44  and  _45
REMARK   24  A    between atoms: _48  and  _50
REMARK   25  A    between atoms: _50  and  _51
REMARK   26  A    between atoms: _53  and  _55
REMARK   27  A    between atoms: _55  and  _56
REMARK   28  A    between atoms: _55  and  _58
REMARK   29  A    between atoms: _58  and  _59
REMARK   30  A    between atoms: _62  and  _64
REMARK   31  A    between atoms: _64  and  _65
REMARK   32  A    between atoms: _64  and  _67
REMARK   33  A    between atoms: _67  and  _68
REMARK   34  A    between atoms: _73  and  _74
REMARK   35  A    between atoms: _76  and  _78
REMARK   36  A    between atoms: _78  and  _79
REMARK   37  A    between atoms: _81  and  _83
REMARK   38  A    between atoms: _83  and  _84
REMARK   39  A    between atoms: _83  and  _86
REMARK   40  A    between atoms: _89  and  _91
REMARK   41  A    between atoms: _91  and  _92
REMARK   42  A    between atoms: _91  and  _94
REMARK   43  A    between atoms: _97  and  _99
REMARK   44  A    between atoms: _99  and  _100
REMARK   45  A    between atoms: _99  and  _102
REMARK   46  A    between atoms: _102  and  _103
REMARK   47  A    between atoms: _108  and  _109
REMARK   48  A    between atoms: _111  and  _113
REMARK   49  A    between atoms: _113  and  _114
REMARK   50  A    between atoms: _113  and  _116
REMARK   51  A    between atoms: _116  and  _117
REMARK   52  A    between atoms: _117  and  _118
REMARK   53  A    between atoms: _118  and  _119
REMARK   54  A    between atoms: _119  and  _120
REMARK   55  A    between atoms: _124  and  _126
REMARK   56  A    between atoms: _126  and  _127
REMARK   57  A    between atoms: _130  and  _132
REMARK   58  A    between atoms: _132  and  _133
REMARK   59  A    between atoms: _132  and  _135
REMARK   60  A    between atoms: _138  and  _140
REMARK   61  A    between atoms: _140  and  _141
REMARK   62  A    between atoms: _140  and  _143
REMARK   63  A    between atoms: _146  and  _148
REMARK   64  A    between atoms: _148  and  _149
REMARK   65  A    between atoms: _152  and  _154
REMARK   66  A    between atoms: _154  and  _155
REMARK   67  A    between atoms: _154  and  _157
REMARK   68  A    between atoms: _157  and  _158
REMARK   69  A    between atoms: _161  and  _163
REMARK   70  A    between atoms: _163  and  _164
REMARK   71  A    between atoms: _163  and  _166
REMARK   72  A    between atoms: _166  and  _167
REMARK   73  A    between atoms: _167  and  _168
REMARK   74  A    between atoms: _168  and  _169
REMARK   75  A    between atoms: _169  and  _170
REMARK   76  A    between atoms: _174  and  _176
REMARK   77  A    between atoms: _176  and  _177
REMARK   78  A    between atoms: _176  and  _179
REMARK   79  A    between atoms: _179  and  _180
REMARK   80  A    between atoms: _180  and  _181
REMARK   81  A    between atoms: _181  and  _182
REMARK   82  A    between atoms: _182  and  _183
REMARK   83  A    between atoms: _187  and  _189
REMARK   84  A    between atoms: _189  and  _190
REMARK   85  A    between atoms: _189  and  _192
REMARK   86  A    between atoms: _192  and  _193
REMARK   87  A    between atoms: _193  and  _194
REMARK   88  A    between atoms: _197  and  _199
REMARK   89  A    between atoms: _199  and  _200
REMARK   90  A    between atoms: _199  and  _202
REMARK   91  A    between atoms: _202  and  _203
REMARK   92  A    between atoms: _206  and  _208
REMARK   93  A    between atoms: _208  and  _209
REMARK   94  A    between atoms: _208  and  _211
REMARK   95  A    between atoms: _211  and  _212
REMARK   96  A    between atoms: _215  and  _217
REMARK   97  A    between atoms: _217  and  _218
REMARK   98  A    between atoms: _217  and  _220
REMARK   99  A    between atoms: _223  and  _225
REMARK  100  A    between atoms: _225  and  _226
REMARK  101  A    between atoms: _225  and  _228
REMARK  102  A    between atoms: _228  and  _229
REMARK  103  A    between atoms: _229  and  _230
REMARK  104  A    between atoms: _230  and  _231
REMARK  105  A    between atoms: _231  and  _232
REMARK  106  A    between atoms: _236  and  _238
REMARK  107  A    between atoms: _238  and  _239
REMARK  108  A    between atoms: _238  and  _241
REMARK  109  A    between atoms: _241  and  _242
REMARK  110  A    between atoms: _245  and  _247
REMARK  111  A    between atoms: _247  and  _248
REMARK  112  A    between atoms: _247  and  _250
REMARK  113  A    between atoms: _250  and  _251
REMARK  114  A    between atoms: _254  and  _256
REMARK  115  A    between atoms: _256  and  _257
REMARK  116  A    between atoms: _256  and  _259
REMARK  117  A    between atoms: _259  and  _260
REMARK  118  A    between atoms: _263  and  _265
REMARK  119  A    between atoms: _265  and  _266
REMARK  120  A    between atoms: _265  and  _268
REMARK  121  A    between atoms: _271  and  _273
REMARK  122  A    between atoms: _273  and  _274
REMARK  123  A    between atoms: _273  and  _276
REMARK  124  A    between atoms: _276  and  _277
REMARK  125  A    between atoms: _283  and  _285
REMARK  126  A    between atoms: _285  and  _286
REMARK  127  A    between atoms: _285  and  _288
REMARK  128  A    between atoms: _288  and  _289
REMARK  129  A    between atoms: _289  and  _290
REMARK  130  A    between atoms: _293  and  _295
REMARK  131  A    between atoms: _295  and  _296
REMARK  132  A    between atoms: _295  and  _298
REMARK  133  A    between atoms: _298  and  _299
REMARK  134  A    between atoms: _305  and  _307
REMARK  135  A    between atoms: _307  and  _308
REMARK  136  A    between atoms: _307  and  _310
REMARK  137  A    between atoms: _310  and  _311
REMARK  138  A    between atoms: _314  and  _316
REMARK  139  A    between atoms: _316  and  _317
REMARK  140  A    between atoms: _316  and  _319
REMARK  141  A    between atoms: _319  and  _320
REMARK  142  A    between atoms: _325  and  _327
REMARK  143  A    between atoms: _327  and  _328
REMARK  144  A    between atoms: _327  and  _330
REMARK  145  A    between atoms: _330  and  _331
REMARK  146  A    between atoms: _331  and  _332
REMARK  147  A    between atoms: _337  and  _339
REMARK  148  A    between atoms: _339  and  _340
REMARK  149  A    between atoms: _339  and  _342
REMARK  150  A    between atoms: _342  and  _343
REMARK  151  A    between atoms: _346  and  _348
REMARK  152  A    between atoms: _348  and  _349
REMARK  153  A    between atoms: _348  and  _351
REMARK  154  A    between atoms: _351  and  _352
REMARK  155  A    between atoms: _355  and  _357
REMARK  156  A    between atoms: _357  and  _358
REMARK  157  A    between atoms: _357  and  _360
REMARK  158  A    between atoms: _360  and  _361
REMARK  159  A    between atoms: _361  and  _362
REMARK  160  A    between atoms: _362  and  _363
REMARK  161  A    between atoms: _363  and  _364
REMARK  162  A    between atoms: _368  and  _370
REMARK  163  A    between atoms: _370  and  _371
REMARK  164  A    between atoms: _370  and  _373
REMARK  165  A    between atoms: _373  and  _374
REMARK  166  A    between atoms: _374  and  _375
REMARK  167  A    between atoms: _375  and  _376
REMARK  168  A    between atoms: _376  and  _377
REMARK  169  A    between atoms: _381  and  _383
REMARK  170  A    between atoms: _383  and  _384
REMARK  171  A    between atoms: _383  and  _386
REMARK  172  A    between atoms: _386  and  _387
REMARK  173  A    between atoms: _394  and  _395
REMARK  174  A    between atoms: _400  and  _402
REMARK  175  A    between atoms: _402  and  _403
REMARK  176  A    between atoms: _402  and  _405
REMARK  177  A    between atoms: _405  and  _406
REMARK  178  A    between atoms: _406  and  _407
REMARK  179  A    between atoms: _412  and  _414
REMARK  180  A    between atoms: _414  and  _415
REMARK  181  A    between atoms: _414  and  _417
REMARK  182  A    between atoms: _417  and  _418
REMARK  183  A    between atoms: _423  and  _425
REMARK  184  A    between atoms: _425  and  _426
REMARK  185  A    between atoms: _425  and  _428
REMARK  186  A    between atoms: _428  and  _429
REMARK  187  A    between atoms: _432  and  _434
REMARK  188  A    between atoms: _434  and  _435
REMARK  189  A    between atoms: _434  and  _437
REMARK  190  A    between atoms: _437  and  _438
REMARK  191  A    between atoms: _441  and  _443
REMARK  192  A    between atoms: _443  and  _444
REMARK  193  A    between atoms: _443  and  _446
REMARK  194  A    between atoms: _446  and  _447
REMARK  195  A    between atoms: _450  and  _452
REMARK  196  A    between atoms: _452  and  _453
REMARK  197  A    between atoms: _452  and  _455
REMARK  198  A    between atoms: _455  and  _456
REMARK  199  A    between atoms: _456  and  _457
REMARK  200  A    between atoms: _457  and  _458
REMARK  201  A    between atoms: _458  and  _459
REMARK  202  A    between atoms: _463  and  _465
REMARK  203  A    between atoms: _465  and  _466
REMARK  204  A    between atoms: _465  and  _468
REMARK  205  A    between atoms: _468  and  _469
REMARK  206  A    between atoms: _472  and  _474
REMARK  207  A    between atoms: _474  and  _475
REMARK  208  A    between atoms: _478  and  _480
REMARK  209  A    between atoms: _480  and  _481
REMARK  210  A    between atoms: _480  and  _483
REMARK  211  A    between atoms: _483  and  _484
REMARK  212  A    between atoms: _487  and  _489
REMARK  213  A    between atoms: _489  and  _490
REMARK  214  A    between atoms: _489  and  _492
REMARK  215  A    between atoms: _492  and  _493
REMARK  216  A    between atoms: _499  and  _501
REMARK  217  A    between atoms: _501  and  _502
REMARK                            x       y       z     vdW  Elec       q    Type
REMARK                         _______ _______ _______ _____ _____    ______ ____
ROOT
ATOM      1  CA  LYS A   3      17.136  20.730  20.307  0.00  0.00    +0.149 C 
ENDROOT
BRANCH   1   3
ATOM      2  C   VAL A   2      15.501  21.865  18.968  0.00  0.00    +0.241 C 
ATOM      3  N   LYS A   3      16.122  21.748  20.124  0.00  0.00    -0.297 N 
ATOM      4  H   LYS A   3      15.883  22.389  20.908  0.00  0.00    +0.150 HD
ATOM      5  O   VAL A   2      15.610  21.029  18.080  0.00  0.00    -0.273 OA
BRANCH   2   6
ATOM      6  CA  VAL A   2      14.630  23.103  18.792  0.00  0.00    +0.148 C 
BRANCH   6   9
ATOM      7  C   ILE A   1      16.028  23.988  17.024  0.00  0.00    +0.238 C 
ATOM      8  O   ILE A   1      17.049  23.889  17.702  0.00  0.00    -0.274 OA
ATOM      9  N   VAL A   2      14.824  23.660  17.472  0.00  0.00    -0.297 N 
ATOM     10  H   VAL A   2      13.998  23.807  16.858  0.00  0.00    +0.150 HD
BRANCH   7  11
ATOM     11  CA  ILE A   1      16.080  24.578  15.625  0.00  0.00    +0.145 C 
BRANCH  11  12
ATOM     12  N   ILE A   1      16.855  25.803  15.673  0.00  0.00    -0.238 NA
ATOM     13  H   ILE A   1      17.852  25.777  15.967  0.00  0.00    +0.142 HD
ENDBRANCH  11  12
BRANCH  11  14
ATOM     14  CB  ILE A   1      16.660  23.584  14.646  0.00  0.00    +0.025 C 
ATOM     15  CG2 ILE A   1      15.868  22.268  14.691  0.00  0.00    +0.002 C 
BRANCH  14  16
ATOM     16  CG1 ILE A   1      16.649  24.193  13.247  0.00  0.00    +0.002 C 
ATOM     17  CD1 ILE A   1      17.061  23.236  12.185  0.00  0.00    +0.000 C 
ENDBRANCH  14  16
ENDBRANCH  11  14
ENDBRANCH   7  11
ENDBRANCH   6   9
BRANCH   6  18
ATOM     18  CB  VAL A   2      13.177  22.709  19.005  0.00  0.00    +0.027 C 
ATOM     19  CG2 VAL A   2      12.895  22.573  20.488  0.00  0.00    +0.002 C 
ATOM     20  CG1 VAL A   2      12.863  21.389  18.235  0.00  0.00    +0.002 C 
ENDBRANCH   6  18
ENDBRANCH   2   6
ENDBRANCH   1   3
BRANCH   1  21
ATOM     21  C   LYS A   3      16.573  19.472  20.946  0.00  0.00    +0.241 C 
ATOM     22  O   LYS A   3      16.055  19.511  22.060  0.00  0.00    -0.273 OA
ATOM     23  N   LEU A   4      16.667  18.357  20.223  0.00  0.00    -0.297 N 
ATOM     24  H   LEU A   4      16.954  18.421  19.226  0.00  0.00    +0.150 HD
BRANCH  23  25
ATOM     25  CA  LEU A   4      16.377  17.053  20.797  0.00  0.00    +0.149 C 
BRANCH  25  26
ATOM     26  C   LEU A   4      17.551  16.609  21.665  0.00  0.00    +0.241 C 
ATOM     27  N   LEU A   5      17.304  16.499  22.968  0.00  0.00    -0.298 N 
ATOM     28  H   LEU A   5      16.324  16.607  23.299  0.00  0.00    +0.150 HD
ATOM     29  O   LEU A   4      18.652  16.375  21.166  0.00  0.00    -0.273 OA
BRANCH  27  30
ATOM     30  CA  LEU A   5      18.350  16.233  23.957  0.00  0.00    +0.137 C 
BRANCH  30  31
ATOM     31  C   LEU A   5      18.578  14.742  24.176  0.00  0.00    +0.227 C 
ATOM     32  O   LEU A   5      19.663  14.320  24.550  0.00  0.00    -0.286 OA
ENDBRANCH  30  31
BRANCH  30  33
ATOM     33  CB  LEU A   5      18.005  16.917  25.294  0.00  0.00    +0.028 C 
BRANCH  33  34
ATOM     34  CG  LEU A   5      17.894  18.454  25.256  0.00  0.00    +0.002 C 
ATOM     35  CD2 LEU A   5      17.290  19.034  26.522  0.00  0.00    +0.000 C 
ATOM     36  CD1 LEU A   5      19.265  19.088  24.991  0.00  0.00    +0.000 C 
ENDBRANCH  33  34
ENDBRANCH  30  33
ENDBRANCH  27  30
ENDBRANCH  25  26
BRANCH  25  37
ATOM     37  CB  LEU A   4      16.106  16.024  19.701  0.00  0.00    +0.029 C 
BRANCH  37  38
ATOM     38  CG  LEU A   4      15.719  14.627  20.193  0.00  0.00    +0.002 C 
ATOM     39  CD2 LEU A   4      14.335  14.657  20.846  0.00  0.00    +0.000 C 
ATOM     40  CD1 LEU A   4      15.761  13.642  19.052  0.00  0.00    +0.000 C 
ENDBRANCH  37  38
ENDBRANCH  25  37
ENDBRANCH  23  25
ENDBRANCH   1  21
BRANCH   1  41
ATOM     41  CB  LYS A   3      18.286  21.288  21.148  0.00  0.00    +0.029 C 
BRANCH  41  42
ATOM     42  CG  LYS A   3      19.518  20.407  21.170  0.00  0.00    +0.000 C 
BRANCH  42  43
ATOM     43  CD  LYS A   3      20.757  21.233  21.497  0.00  0.00    -0.024 C 
BRANCH  43  44
ATOM     44  CE  LYS A   3      22.029  20.387  21.448  0.00  0.00    -0.086 C 
BRANCH  44  45
ATOM     45  NZ  LYS A   3      22.174  19.511  22.649  0.00  0.00    +0.380 N 
ATOM     46  HZ1 LYS A   3      22.212  20.101  23.505  0.00  0.00    -0.089 HD
ATOM     47  HZ2 LYS A   3      21.360  18.866  22.707  0.00  0.00    -0.089 HD
ATOM     48  HZ3 LYS A   3      23.051  18.958  22.569  0.00  0.00    -0.089 HD
ENDBRANCH  44  45
ENDBRANCH  43  44
ENDBRANCH  42  43
ENDBRANCH  41  42
ENDBRANCH   1  41
TORSDOF 22
REMARK  Name = ../refined-set-2016/4bcm/4bcm_pocket.pdb
REMARK  217 active torsions:
REMARK  status: ('A' for Active; 'I' for Inactive)
REMARK    1  A    between atoms: _1  and  _3
REMARK    2  A    between atoms: _3  and  _4
REMARK    3  A    between atoms: _3  and  _6
REMARK    4  A    between atoms: _6  and  _7
REMARK    5  A    between atoms: _7  and  _8
REMARK    6  A    between atoms: _11  and  _13
REMARK    7  A    between atoms: _13  and  _14
REMARK    8  A    between atoms: _13  and  _16
REMARK    9  A    between atoms: _16  and  _17
REMARK   10  A    between atoms: _17  and  _18
REMARK   11  A    between atoms: _18  and  _19
REMARK   12  A    between atoms: _19  and  _20
REMARK   13  A    between atoms: _24  and  _26
REMARK   14  A    between atoms: _26  and  _27
REMARK   15  A    between atoms: _26  and  _29
REMARK   16  A    between atoms: _29  and  _30
REMARK   17  A    between atoms: _33  and  _35
REMARK   18  A    between atoms: _35  and  _36
REMARK   19  A    between atoms: _38  and  _40
REMARK   20  A    between atoms: _40  and  _41
REMARK   21  A    between atoms: _40  and  _43
REMARK   22  A    between atoms: _43  and  _44
REMARK   23  A    between atoms: _44  and  _45
REMARK   24  A    between atoms: _48  and  _50
REMARK   25  A    between atoms: _50  and  _51
REMARK   26  A    between atoms: _53  and  _55
REMARK   27  A    between atoms: _55  and  _56
REMARK   28  A    between atoms: _55  and  _58
REMARK   29  A    between atoms: _58  and  _59
REMARK   30  A    between atoms: _62  and  _64
REMARK   31  A    between atoms: _64  and  _65
REMARK   32  A    between atoms: _64  and  _67
REMARK   33  A    between atoms: _67  and  _68
REMARK   34  A    between atoms: _73  and  _74
REMARK   35  A    between atoms: _76  and  _78
REMARK   36  A    between atoms: _78  and  _79
REMARK   37  A    between atoms: _81  and  _83
REMARK   38  A    between atoms: _83  and  _84
REMARK   39  A    between atoms: _83  and  _86
REMARK   40  A    between atoms: _89  and  _91
REMARK   41  A    between atoms: _91  and  _92
REMARK   42  A    between atoms: _91  and  _94
REMARK   43  A    between atoms: _97  and  _99
REMARK   44  A    between atoms: _99  and  _100
REMARK   45  A    between atoms: _99  and  _102
REMARK   46  A    between atoms: _102  and  _103
REMARK   47  A    between atoms: _108  and  _109
REMARK   48  A    between atoms: _111  and  _113
REMARK   49  A    between atoms: _113  and  _114
REMARK   50  A    between atoms: _113  and  _116
REMARK   51  A    between atoms: _116  and  _117
REMARK   52  A    between atoms: _117  and  _118
REMARK   53  A    between atoms: _118  and  _119
REMARK   54  A    between atoms: _119  and  _120
REMARK   55  A    between atoms: _124  and  _126
REMARK   56  A    between atoms: _126  and  _127
REMARK   57  A    between atoms: _130  and  _132
REMARK   58  A    between atoms: _132  and  _133
REMARK   59  A    between atoms: _132  and  _135
REMARK   60  A    between atoms: _138  and  _140
REMARK   61  A    between atoms: _140  and  _141
REMARK   62  A    between atoms: _140  and  _143
REMARK   63  A    between atoms: _146  and  _148
REMARK   64  A    between atoms: _148  and  _149
REMARK   65  A    between atoms: _152  and  _154
REMARK   66  A    between atoms: _154  and  _155
REMARK   67  A    between atoms: _154  and  _157
REMARK   68  A    between atoms: _157  and  _158
REMARK   69  A    between atoms: _161  and  _163
REMARK   70  A    between atoms: _163  and  _164
REMARK   71  A    between atoms: _163  and  _166
REMARK   72  A    between atoms: _166  and  _167
REMARK   73  A    between atoms: _167  and  _168
REMARK   74  A    between atoms: _168  and  _169
REMARK   75  A    between atoms: _169  and  _170
REMARK   76  A    between atoms: _174  and  _176
REMARK   77  A    between atoms: _176  and  _177
REMARK   78  A    between atoms: _176  and  _179
REMARK   79  A    between atoms: _179  and  _180
REMARK   80  A    between atoms: _180  and  _181
REMARK   81  A    between atoms: _181  and  _182
REMARK   82  A    between atoms: _182  and  _183
REMARK   83  A    between atoms: _187  and  _189
REMARK   84  A    between atoms: _189  and  _190
REMARK   85  A    between atoms: _189  and  _192
REMARK   86  A    between atoms: _192  and  _193
REMARK   87  A    between atoms: _193  and  _194
REMARK   88  A    between atoms: _197  and  _199
REMARK   89  A    between atoms: _199  and  _200
REMARK   90  A    between atoms: _199  and  _202
REMARK   91  A    between atoms: _202  and  _203
REMARK   92  A    between atoms: _206  and  _208
REMARK   93  A    between atoms: _208  and  _209
REMARK   94  A    between atoms: _208  and  _211
REMARK   95  A    between atoms: _211  and  _212
REMARK   96  A    between atoms: _215  and  _217
REMARK   97  A    between atoms: _217  and  _218
REMARK   98  A    between atoms: _217  and  _220
REMARK   99  A    between atoms: _223  and  _225
REMARK  100  A    between atoms: _225  and  _226
REMARK  101  A    between atoms: _225  and  _228
REMARK  102  A    between atoms: _228  and  _229
REMARK  103  A    between atoms: _229  and  _230
REMARK  104  A    between atoms: _230  and  _231
REMARK  105  A    between atoms: _231  and  _232
REMARK  106  A    between atoms: _236  and  _238
REMARK  107  A    between atoms: _238  and  _239
REMARK  108  A    between atoms: _238  and  _241
REMARK  109  A    between atoms: _241  and  _242
REMARK  110  A    between atoms: _245  and  _247
REMARK  111  A    between atoms: _247  and  _248
REMARK  112  A    between atoms: _247  and  _250
REMARK  113  A    between atoms: _250  and  _251
REMARK  114  A    between atoms: _254  and  _256
REMARK  115  A    between atoms: _256  and  _257
REMARK  116  A    between atoms: _256  and  _259
REMARK  117  A    between atoms: _259  and  _260
REMARK  118  A    between atoms: _263  and  _265
REMARK  119  A    between atoms: _265  and  _266
REMARK  120  A    between atoms: _265  and  _268
REMARK  121  A    between atoms: _271  and  _273
REMARK  122  A    between atoms: _273  and  _274
REMARK  123  A    between atoms: _273  and  _276
REMARK  124  A    between atoms: _276  and  _277
REMARK  125  A    between atoms: _283  and  _285
REMARK  126  A    between atoms: _285  and  _286
REMARK  127  A    between atoms: _285  and  _288
REMARK  128  A    between atoms: _288  and  _289
REMARK  129  A    between atoms: _289  and  _290
REMARK  130  A    between atoms: _293  and  _295
REMARK  131  A    between atoms: _295  and  _296
REMARK  132  A    between atoms: _295  and  _298
REMARK  133  A    between atoms: _298  and  _299
REMARK  134  A    between atoms: _305  and  _307
REMARK  135  A    between atoms: _307  and  _308
REMARK  136  A    between atoms: _307  and  _310
REMARK  137  A    between atoms: _310  and  _311
REMARK  138  A    between atoms: _314  and  _316
REMARK  139  A    between atoms: _316  and  _317
REMARK  140  A    between atoms: _316  and  _319
REMARK  141  A    between atoms: _319  and  _320
REMARK  142  A    between atoms: _325  and  _327
REMARK  143  A    between atoms: _327  and  _328
REMARK  144  A    between atoms: _327  and  _330
REMARK  145  A    between atoms: _330  and  _331
REMARK  146  A    between atoms: _331  and  _332
REMARK  147  A    between atoms: _337  and  _339
REMARK  148  A    between atoms: _339  and  _340
REMARK  149  A    between atoms: _339  and  _342
REMARK  150  A    between atoms: _342  and  _343
REMARK  151  A    between atoms: _346  and  _348
REMARK  152  A    between atoms: _348  and  _349
REMARK  153  A    between atoms: _348  and  _351
REMARK  154  A    between atoms: _351  and  _352
REMARK  155  A    between atoms: _355  and  _357
REMARK  156  A    between atoms: _357  and  _358
REMARK  157  A    between atoms: _357  and  _360
REMARK  158  A    between atoms: _360  and  _361
REMARK  159  A    between atoms: _361  and  _362
REMARK  160  A    between atoms: _362  and  _363
REMARK  161  A    between atoms: _363  and  _364
REMARK  162  A    between atoms: _368  and  _370
REMARK  163  A    between atoms: _370  and  _371
REMARK  164  A    between atoms: _370  and  _373
REMARK  165  A    between atoms: _373  and  _374
REMARK  166  A    between atoms: _374  and  _375
REMARK  167  A    between atoms: _375  and  _376
REMARK  168  A    between atoms: _376  and  _377
REMARK  169  A    between atoms: _381  and  _383
REMARK  170  A    between atoms: _383  and  _384
REMARK  171  A    between atoms: _383  and  _386
REMARK  172  A    between atoms: _386  and  _387
REMARK  173  A    between atoms: _394  and  _395
REMARK  174  A    between atoms: _400  and  _402
REMARK  175  A    between atoms: _402  and  _403
REMARK  176  A    between atoms: _402  and  _405
REMARK  177  A    between atoms: _405  and  _406
REMARK  178  A    between atoms: _406  and  _407
REMARK  179  A    between atoms: _412  and  _414
REMARK  180  A    between atoms: _414  and  _415
REMARK  181  A    between atoms: _414  and  _417
REMARK  182  A    between atoms: _417  and  _418
REMARK  183  A    between atoms: _423  and  _425
REMARK  184  A    between atoms: _425  and  _426
REMARK  185  A    between atoms: _425  and  _428
REMARK  186  A    between atoms: _428  and  _429
REMARK  187  A    between atoms: _432  and  _434
REMARK  188  A    between atoms: _434  and  _435
REMARK  189  A    between atoms: _434  and  _437
REMARK  190  A    between atoms: _437  and  _438
REMARK  191  A    between atoms: _441  and  _443
REMARK  192  A    between atoms: _443  and  _444
REMARK  193  A    between atoms: _443  and  _446
REMARK  194  A    between atoms: _446  and  _447
REMARK  195  A    between atoms: _450  and  _452
REMARK  196  A    between atoms: _452  and  _453
REMARK  197  A    between atoms: _452  and  _455
REMARK  198  A    between atoms: _455  and  _456
REMARK  199  A    between atoms: _456  and  _457
REMARK  200  A    between atoms: _457  and  _458
REMARK  201  A    between atoms: _458  and  _459
REMARK  202  A    between atoms: _463  and  _465
REMARK  203  A    between atoms: _465  and  _466
REMARK  204  A    between atoms: _465  and  _468
REMARK  205  A    between atoms: _468  and  _469
REMARK  206  A    between atoms: _472  and  _474
REMARK  207  A    between atoms: _474  and  _475
REMARK  208  A    between atoms: _478  and  _480
REMARK  209  A    between atoms: _480  and  _481
REMARK  210  A    between atoms: _480  and  _483
REMARK  211  A    between atoms: _483  and  _484
REMARK  212  A    between atoms: _487  and  _489
REMARK  213  A    between atoms: _489  and  _490
REMARK  214  A    between atoms: _489  and  _492
REMARK  215  A    between atoms: _492  and  _493
REMARK  216  A    between atoms: _499  and  _501
REMARK  217  A    between atoms: _501  and  _502
REMARK                            x       y       z     vdW  Elec       q    Type
REMARK                         _______ _______ _______ _____ _____    ______ ____
ROOT
ATOM      1  C   HIS A   7       7.188  29.292  26.740  0.00  0.00    +0.241 C 
ATOM      2  O   HIS A   7       6.247  29.071  27.491  0.00  0.00    -0.273 OA
ATOM      3  N   GLN A   8       7.019  29.557  25.450  0.00  0.00    -0.297 N 
ATOM      4  H   GLN A   8       7.836  29.843  24.874  0.00  0.00    +0.150 HD
ENDROOT
BRANCH   3   5
ATOM      5  CA  GLN A   8       5.701  29.452  24.827  0.00  0.00    +0.149 C 
BRANCH   5   6
ATOM      6  C   GLN A   8       5.849  29.406  23.314  0.00  0.00    +0.241 C 
ATOM      7  O   GLN A   8       6.965  29.408  22.804  0.00  0.00    -0.273 OA
ATOM      8  N   ASP A   9       4.733  29.362  22.590  0.00  0.00    -0.297 N 
ATOM      9  H   ASP A   9       3.808  29.293  23.060  0.00  0.00    +0.150 HD
BRANCH   8  10
ATOM     10  CA  ASP A   9       4.814  29.411  21.133  0.00  0.00    +0.160 C 
BRANCH  10  11
ATOM     11  C   ASP A   9       4.484  30.811  20.596  0.00  0.00    +0.241 C 
ATOM     12  O   ASP A   9       3.969  31.667  21.324  0.00  0.00    -0.273 OA
ATOM     13  N   LEU A  10       4.802  31.039  19.328  0.00  0.00    -0.297 N 
ATOM     14  H   LEU A  10       5.233  30.275  18.768  0.00  0.00    +0.150 HD
BRANCH  13  15
ATOM     15  CA  LEU A  10       4.564  32.328  18.702  0.00  0.00    +0.149 C 
BRANCH  15  16
ATOM     16  C   LEU A  10       3.075  32.678  18.701  0.00  0.00    +0.241 C 
ATOM     17  O   LEU A  10       2.706  33.847  18.864  0.00  0.00    -0.273 OA
ATOM     18  N   LYS A  11       2.223  31.669  18.528  0.00  0.00    -0.297 N 
ATOM     19  H   LYS A  11       2.590  30.705  18.394  0.00  0.00    +0.150 HD
BRANCH  18  20
ATOM     20  CA  LYS A  11       0.780  31.897  18.524  0.00  0.00    +0.149 C 
BRANCH  20  21
ATOM     21  C   LYS A  11       0.313  32.533  19.830  0.00  0.00    +0.241 C 
ATOM     22  N   LYS A  12       0.744  31.963  20.947  0.00  0.00    -0.297 N 
ATOM     23  H   LYS A  12       1.332  31.107  20.889  0.00  0.00    +0.150 HD
ATOM     24  O   LYS A  11      -0.420  33.520  19.827  0.00  0.00    -0.273 OA
BRANCH  22  25
ATOM     25  CA  LYS A  12       0.410  32.512  22.251  0.00  0.00    +0.149 C 
BRANCH  25  26
ATOM     26  C   LYS A  12       0.905  33.943  22.375  0.00  0.00    +0.241 C 
ATOM     27  O   LYS A  12       0.227  34.799  22.931  0.00  0.00    -0.273 OA
ATOM     28  N   PHE A  13       2.098  34.199  21.861  0.00  0.00    -0.298 N 
ATOM     29  H   PHE A  13       2.601  33.462  21.327  0.00  0.00    +0.150 HD
BRANCH  28  30
ATOM     30  CA  PHE A  13       2.705  35.501  22.039  0.00  0.00    +0.141 C 
BRANCH  30  31
ATOM     31  C   PHE A  13       1.928  36.569  21.275  0.00  0.00    +0.227 C 
ATOM     32  O   PHE A  13       1.622  37.625  21.822  0.00  0.00    -0.286 OA
ENDBRANCH  30  31
BRANCH  30  33
ATOM     33  CB  PHE A  13       4.172  35.468  21.613  0.00  0.00    +0.054 C 
BRANCH  33  34
ATOM     34  CG  PHE A  13       4.874  36.783  21.760  0.00  0.00    -0.020 A 
ATOM     35  CD2 PHE A  13       5.110  37.319  23.011  0.00  0.00    -0.004 A 
ATOM     36  CE2 PHE A  13       5.768  38.529  23.151  0.00  0.00    -0.000 A 
ATOM     37  CZ  PHE A  13       6.200  39.213  22.039  0.00  0.00    -0.000 A 
ATOM     38  CE1 PHE A  13       5.977  38.691  20.791  0.00  0.00    -0.000 A 
ATOM     39  CD1 PHE A  13       5.311  37.478  20.652  0.00  0.00    -0.004 A 
ENDBRANCH  33  34
ENDBRANCH  30  33
ENDBRANCH  28  30
ENDBRANCH  25  26
BRANCH  25  40
ATOM     40  CB  LYS A  12       1.038  31.679  23.359  0.00  0.00    +0.029 C 
BRANCH  40  41
ATOM     41  CG  LYS A  12       0.057  30.969  24.219  0.00  0.00    +0.000 C 
BRANCH  41  42
ATOM     42  CD  LYS A  12      -0.326  29.641  23.621  0.00  0.00    -0.024 C 
BRANCH  42  43
ATOM     43  CE  LYS A  12      -0.592  28.650  24.741  0.00  0.00    -0.086 C 
BRANCH  43  44
ATOM     44  NZ  LYS A  12      -1.117  27.358  24.235  0.00  0.00    +0.380 N 
ATOM     45  HZ1 LYS A  12      -1.283  26.715  25.036  0.00  0.00    -0.089 HD
ATOM     46  HZ2 LYS A  12      -2.011  27.522  23.730  0.00  0.00    -0.089 HD
ATOM     47  HZ3 LYS A  12      -0.424  26.934  23.586  0.00  0.00    -0.089 HD
ENDBRANCH  43  44
ENDBRANCH  42  43
ENDBRANCH  41  42
ENDBRANCH  40  41
ENDBRANCH  25  40
ENDBRANCH  22  25
ENDBRANCH  20  21
BRANCH  20  48
ATOM     48  CB  LYS A  11       0.013  30.598  18.267  0.00  0.00    +0.029 C 
BRANCH  48  49
ATOM     49  CG  LYS A  11      -1.491  30.802  18.155  0.00  0.00    +0.000 C 
BRANCH  49  50
ATOM     50  CD  LYS A  11      -1.803  31.842  17.080  0.00  0.00    -0.024 C 
BRANCH  50  51
ATOM     51  CE  LYS A  11      -3.163  32.505  17.300  0.00  0.00    -0.086 C 
BRANCH  51  52
ATOM     52  NZ  LYS A  11      -3.295  33.790  16.544  0.00  0.00    +0.380 N 
ATOM     53  HZ1 LYS A  11      -2.558  34.453  16.858  0.00  0.00    -0.089 HD
ATOM     54  HZ2 LYS A  11      -4.233  34.202  16.724  0.00  0.00    -0.089 HD
ATOM     55  HZ3 LYS A  11      -3.186  33.605  15.526  0.00  0.00    -0.089 HD
ENDBRANCH  51  52
ENDBRANCH  50  51
ENDBRANCH  49  50
ENDBRANCH  48  49
ENDBRANCH  20  48
ENDBRANCH  18  20
ENDBRANCH  15  16
BRANCH  15  56
ATOM     56  CB  LEU A  10       5.112  32.332  17.276  0.00  0.00    +0.029 C 
BRANCH  56  57
ATOM     57  CG  LEU A  10       4.963  33.671  16.567  0.00  0.00    +0.002 C 
ATOM     58  CD2 LEU A  10       5.734  34.736  17.349  0.00  0.00    +0.000 C 
ATOM     59  CD1 LEU A  10       5.436  33.582  15.128  0.00  0.00    +0.000 C 
ENDBRANCH  56  57
ENDBRANCH  15  56
ENDBRANCH  13  15
ENDBRANCH  10  11
BRANCH  10  60
ATOM     60  CB  ASP A   9       3.952  28.324  20.476  0.00  0.00    +0.143 C 
BRANCH  60  61
ATOM     61  CG  ASP A   9       2.455  28.500  20.740  0.00  0.00    +0.367 C 
ATOM     62  OD2 ASP A   9       2.001  29.624  21.026  0.00  0.00    -0.246 OA
ATOM     63  OD1 ASP A   9       1.719  27.501  20.640  0.00  0.00    -0.246 OA
ENDBRANCH  60  61
ENDBRANCH  10  60
ENDBRANCH   8  10
ENDBRANCH   5   6
BRANCH   5  64
ATOM     64  CB  GLN A   8       4.796  30.617  25.241  0.00  0.00    +0.039 C 
BRANCH  64  65
ATOM     65  CG  GLN A   8       5.198  31.959  24.662  0.00  0.00    +0.087 C 
BRANCH  65  66
ATOM     66  CD  GLN A   8       4.365  33.114  25.198  0.00  0.00    +0.219 C 
ATOM     67  NE2 GLN A   8       3.501  32.825  26.163  0.00  0.00    -0.329 N 
ATOM     68 HE21 GLN A   8       2.907  33.575  26.571  0.00  0.00    +0.145 HD
ATOM     69 HE22 GLN A   8       3.418  31.849  26.512  0.00  0.00    +0.145 HD
ATOM     70  OE1 GLN A   8       4.501  34.253  24.751  0.00  0.00    -0.275 OA
ENDBRANCH  65  66
ENDBRANCH  64  65
ENDBRANCH   5  64
ENDBRANCH   3   5
BRANCH   1  71
ATOM     71  CA  HIS A   7       8.617  29.237  27.283  0.00  0.00    +0.155 C 
BRANCH  71  73
ATOM     72  C   LEU A   6       9.695  27.348  26.185  0.00  0.00    +0.241 C 
ATOM     73  N   HIS A   7       9.656  28.649  26.441  0.00  0.00    -0.297 N 
ATOM     74  H   HIS A   7      10.385  29.267  26.031  0.00  0.00    +0.150 HD
ATOM     75  O   LEU A   6       8.736  26.604  26.359  0.00  0.00    -0.273 OA
BRANCH  72  76
ATOM     76  CA  LEU A   6      11.011  26.816  25.611  0.00  0.00    +0.149 C 
BRANCH  76  79
ATOM     77  C   PHE A   5      12.267  25.061  26.741  0.00  0.00    +0.241 C 
ATOM     78  O   PHE A   5      13.146  25.849  27.098  0.00  0.00    -0.273 OA
ATOM     79  N   LEU A   6      11.251  25.415  25.960  0.00  0.00    -0.297 N 
ATOM     80  H   LEU A   6      10.614  24.681  25.589  0.00  0.00    +0.150 HD
BRANCH  77  81
ATOM     81  CA  PHE A   5      12.293  23.606  27.200  0.00  0.00    +0.153 C 
BRANCH  81  83
ATOM     82  C   GLU A   4      13.686  22.334  25.683  0.00  0.00    +0.241 C 
ATOM     83  N   PHE A   5      13.534  22.914  26.870  0.00  0.00    -0.297 N 
ATOM     84  H   PHE A   5      14.305  22.874  27.567  0.00  0.00    +0.150 HD
ATOM     85  O   GLU A   4      12.803  22.340  24.822  0.00  0.00    -0.273 OA
BRANCH  82  86
ATOM     86  CA  GLU A   4      15.009  21.614  25.426  0.00  0.00    +0.149 C 
BRANCH  86  89
ATOM     87  C   PHE A   3      13.935  19.473  25.138  0.00  0.00    +0.241 C 
ATOM     88  O   PHE A   3      13.577  19.468  26.316  0.00  0.00    -0.273 OA
ATOM     89  N   GLU A   4      14.714  20.425  24.632  0.00  0.00    -0.297 N 
ATOM     90  H   GLU A   4      15.111  20.323  23.676  0.00  0.00    +0.150 HD
BRANCH  87  91
ATOM     91  CA  PHE A   3      13.456  18.388  24.181  0.00  0.00    +0.153 C 
BRANCH  91  93
ATOM     92  C   VAL A   2      13.932  16.092  24.845  0.00  0.00    +0.241 C 
ATOM     93  N   PHE A   3      13.121  17.146  24.884  0.00  0.00    -0.297 N 
ATOM     94  H   PHE A   3      12.233  17.088  25.423  0.00  0.00    +0.150 HD
ATOM     95  O   VAL A   2      14.982  16.081  24.211  0.00  0.00    -0.273 OA
BRANCH  92  96
ATOM     96  CA  VAL A   2      13.487  14.858  25.609  0.00  0.00    +0.148 C 
BRANCH  96  99
ATOM     97  C   LEU A   1      11.888  13.459  24.432  0.00  0.00    +0.238 C 
ATOM     98  O   LEU A   1      10.934  14.072  24.922  0.00  0.00    -0.274 OA
ATOM     99  N   VAL A   2      13.149  13.781  24.685  0.00  0.00    -0.297 N 
ATOM    100  H   VAL A   2      13.913  13.255  24.215  0.00  0.00    +0.150 HD
BRANCH  97 101
ATOM    101  CA  LEU A   1      11.665  12.269  23.491  0.00  0.00    +0.145 C 
BRANCH 101 102
ATOM    102  N   LEU A   1      10.775  11.306  24.121  0.00  0.00    -0.238 NA
ATOM    103  H   LEU A   1       9.746  11.421  24.021  0.00  0.00    +0.142 HD
ENDBRANCH 101 102
BRANCH 101 104
ATOM    104  CB  LEU A   1      11.090  12.753  22.157  0.00  0.00    +0.026 C 
BRANCH 104 105
ATOM    105  CG  LEU A   1      11.056  11.812  20.945  0.00  0.00    +0.002 C 
ATOM    106  CD2 LEU A   1       9.975  10.780  21.067  0.00  0.00    +0.000 C 
ATOM    107  CD1 LEU A   1      10.856  12.600  19.661  0.00  0.00    +0.000 C 
ENDBRANCH 104 105
ENDBRANCH 101 104
ENDBRANCH  97 101
ENDBRANCH  96  99
BRANCH  96 108
ATOM    108  CB  VAL A   2      14.599  14.419  26.576  0.00  0.00    +0.027 C 
ATOM    109  CG2 VAL A   2      14.939  15.540  27.562  0.00  0.00    +0.002 C 
ATOM    110  CG1 VAL A   2      14.171  13.159  27.306  0.00  0.00    +0.002 C 
ENDBRANCH  96 108
ENDBRANCH  92  96
ENDBRANCH  91  93
BRANCH  91 111
ATOM    111  CB  PHE A   3      12.239  18.927  23.420  0.00  0.00    +0.055 C 
BRANCH 111 112
ATOM    112  CG  PHE A   3      11.800  18.060  22.291  0.00  0.00    -0.020 A 
ATOM    113  CD2 PHE A   3      10.778  17.140  22.462  0.00  0.00    -0.004 A 
ATOM    114  CE2 PHE A   3      10.365  16.332  21.407  0.00  0.00    -0.000 A 
ATOM    115  CZ  PHE A   3      10.974  16.447  20.172  0.00  0.00    -0.000 A 
ATOM    116  CE1 PHE A   3      11.994  17.359  19.994  0.00  0.00    -0.000 A 
ATOM    117  CD1 PHE A   3      12.402  18.163  21.051  0.00  0.00    -0.004 A 
ENDBRANCH 111 112
ENDBRANCH  91 111
ENDBRANCH  87  91
ENDBRANCH  86  89
BRANCH  86 118
ATOM    118  CB  GLU A   4      15.988  22.535  24.704  0.00  0.00    +0.041 C 
BRANCH 118 119
ATOM    119  CG  GLU A   4      15.446  23.092  23.424  0.00  0.00    +0.116 C 
BRANCH 119 120
ATOM    120  CD  GLU A   4      16.282  24.235  22.900  0.00  0.00    +0.365 C 
ATOM    121  OE2 GLU A   4      16.802  24.998  23.731  0.00  0.00    -0.246 OA
ATOM    122  OE1 GLU A   4      16.432  24.364  21.664  0.00  0.00    -0.246 OA
ENDBRANCH 119 120
ENDBRANCH 118 119
ENDBRANCH  86 118
ENDBRANCH  82  86
ENDBRANCH  81  83
BRANCH  81 123
ATOM    123  CB  PHE A   5      12.005  23.553  28.699  0.00  0.00    +0.055 C 
BRANCH 123 124
ATOM    124  CG  PHE A   5      10.779  24.333  29.093  0.00  0.00    -0.020 A 
ATOM    125  CD2 PHE A   5      10.895  25.584  29.690  0.00  0.00    -0.004 A 
ATOM    126  CE2 PHE A   5       9.776  26.308  30.050  0.00  0.00    -0.000 A 
ATOM    127  CZ  PHE A   5       8.526  25.793  29.800  0.00  0.00    -0.000 A 
ATOM    128  CE1 PHE A   5       8.393  24.542  29.192  0.00  0.00    -0.000 A 
ATOM    129  CD1 PHE A   5       9.512  23.825  28.844  0.00  0.00    -0.004 A 
ENDBRANCH 123 124
ENDBRANCH  81 123
ENDBRANCH  77  81
ENDBRANCH  76  79
BRANCH  76 130
ATOM    130  CB  LEU A   6      11.074  27.032  24.106  0.00  0.00    +0.029 C 
BRANCH 130 131
ATOM    131  CG  LEU A   6      12.482  27.164  23.525  0.00  0.00    +0.002 C 
ATOM    132  CD2 LEU A   6      12.949  25.834  22.944  0.00  0.00    +0.000 C 
ATOM    133  CD1 LEU A   6      12.486  28.246  22.461  0.00  0.00    +0.000 C 
ENDBRANCH 130 131
ENDBRANCH  76 130
ENDBRANCH  72  76
ENDBRANCH  71  73
BRANCH  71 134
ATOM    134  CB  HIS A   7       9.106  30.571  27.841  0.00  0.00    +0.076 C 
BRANCH 134 135
ATOM    135  CG  HIS A   7      10.430  30.444  28.531  0.00  0.00    +0.082 A 
ATOM    136  CD2 HIS A   7      10.756  30.444  29.846  0.00  0.00    +0.115 A 
ATOM    137  NE2 HIS A   7      12.112  30.237  29.926  0.00  0.00    -0.221 NA
ATOM    138  CE1 HIS A   7      12.598  30.093  28.706  0.00  0.00    +0.199 A 
ATOM    139  ND1 HIS A   7      11.601  30.196  27.846  0.00  0.00    -0.227 NA
ENDBRANCH 134 135
ENDBRANCH  71 134
ENDBRANCH   1  71
TORSDOF 59
REMARK  Name = ../refined-set-2016/4bcm/4bcm_pocket.pdb
REMARK  217 active torsions:
REMARK  status: ('A' for Active; 'I' for Inactive)
REMARK    1  A    between atoms: _1  and  _3
REMARK    2  A    between atoms: _3  and  _4
REMARK    3  A    between atoms: _3  and  _6
REMARK    4  A    between atoms: _6  and  _7
REMARK    5  A    between atoms: _7  and  _8
REMARK    6  A    between atoms: _11  and  _13
REMARK    7  A    between atoms: _13  and  _14
REMARK    8  A    between atoms: _13  and  _16
REMARK    9  A    between atoms: _16  and  _17
REMARK   10  A    between atoms: _17  and  _18
REMARK   11  A    between atoms: _18  and  _19
REMARK   12  A    between atoms: _19  and  _20
REMARK   13  A    between atoms: _24  and  _26
REMARK   14  A    between atoms: _26  and  _27
REMARK   15  A    between atoms: _26  and  _29
REMARK   16  A    between atoms: _29  and  _30
REMARK   17  A    between atoms: _33  and  _35
REMARK   18  A    between atoms: _35  and  _36
REMARK   19  A    between atoms: _38  and  _40
REMARK   20  A    between atoms: _40  and  _41
REMARK   21  A    between atoms: _40  and  _43
REMARK   22  A    between atoms: _43  and  _44
REMARK   23  A    between atoms: _44  and  _45
REMARK   24  A    between atoms: _48  and  _50
REMARK   25  A    between atoms: _50  and  _51
REMARK   26  A    between atoms: _53  and  _55
REMARK   27  A    between atoms: _55  and  _56
REMARK   28  A    between atoms: _55  and  _58
REMARK   29  A    between atoms: _58  and  _59
REMARK   30  A    between atoms: _62  and  _64
REMARK   31  A    between atoms: _64  and  _65
REMARK   32  A    between atoms: _64  and  _67
REMARK   33  A    between atoms: _67  and  _68
REMARK   34  A    between atoms: _73  and  _74
REMARK   35  A    between atoms: _76  and  _78
REMARK   36  A    between atoms: _78  and  _79
REMARK   37  A    between atoms: _81  and  _83
REMARK   38  A    between atoms: _83  and  _84
REMARK   39  A    between atoms: _83  and  _86
REMARK   40  A    between atoms: _89  and  _91
REMARK   41  A    between atoms: _91  and  _92
REMARK   42  A    between atoms: _91  and  _94
REMARK   43  A    between atoms: _97  and  _99
REMARK   44  A    between atoms: _99  and  _100
REMARK   45  A    between atoms: _99  and  _102
REMARK   46  A    between atoms: _102  and  _103
REMARK   47  A    between atoms: _108  and  _109
REMARK   48  A    between atoms: _111  and  _113
REMARK   49  A    between atoms: _113  and  _114
REMARK   50  A    between atoms: _113  and  _116
REMARK   51  A    between atoms: _116  and  _117
REMARK   52  A    between atoms: _117  and  _118
REMARK   53  A    between atoms: _118  and  _119
REMARK   54  A    between atoms: _119  and  _120
REMARK   55  A    between atoms: _124  and  _126
REMARK   56  A    between atoms: _126  and  _127
REMARK   57  A    between atoms: _130  and  _132
REMARK   58  A    between atoms: _132  and  _133
REMARK   59  A    between atoms: _132  and  _135
REMARK   60  A    between atoms: _138  and  _140
REMARK   61  A    between atoms: _140  and  _141
REMARK   62  A    between atoms: _140  and  _143
REMARK   63  A    between atoms: _146  and  _148
REMARK   64  A    between atoms: _148  and  _149
REMARK   65  A    between atoms: _152  and  _154
REMARK   66  A    between atoms: _154  and  _155
REMARK   67  A    between atoms: _154  and  _157
REMARK   68  A    between atoms: _157  and  _158
REMARK   69  A    between atoms: _161  and  _163
REMARK   70  A    between atoms: _163  and  _164
REMARK   71  A    between atoms: _163  and  _166
REMARK   72  A    between atoms: _166  and  _167
REMARK   73  A    between atoms: _167  and  _168
REMARK   74  A    between atoms: _168  and  _169
REMARK   75  A    between atoms: _169  and  _170
REMARK   76  A    between atoms: _174  and  _176
REMARK   77  A    between atoms: _176  and  _177
REMARK   78  A    between atoms: _176  and  _179
REMARK   79  A    between atoms: _179  and  _180
REMARK   80  A    between atoms: _180  and  _181
REMARK   81  A    between atoms: _181  and  _182
REMARK   82  A    between atoms: _182  and  _183
REMARK   83  A    between atoms: _187  and  _189
REMARK   84  A    between atoms: _189  and  _190
REMARK   85  A    between atoms: _189  and  _192
REMARK   86  A    between atoms: _192  and  _193
REMARK   87  A    between atoms: _193  and  _194
REMARK   88  A    between atoms: _197  and  _199
REMARK   89  A    between atoms: _199  and  _200
REMARK   90  A    between atoms: _199  and  _202
REMARK   91  A    between atoms: _202  and  _203
REMARK   92  A    between atoms: _206  and  _208
REMARK   93  A    between atoms: _208  and  _209
REMARK   94  A    between atoms: _208  and  _211
REMARK   95  A    between atoms: _211  and  _212
REMARK   96  A    between atoms: _215  and  _217
REMARK   97  A    between atoms: _217  and  _218
REMARK   98  A    between atoms: _217  and  _220
REMARK   99  A    between atoms: _223  and  _225
REMARK  100  A    between atoms: _225  and  _226
REMARK  101  A    between atoms: _225  and  _228
REMARK  102  A    between atoms: _228  and  _229
REMARK  103  A    between atoms: _229  and  _230
REMARK  104  A    between atoms: _230  and  _231
REMARK  105  A    between atoms: _231  and  _232
REMARK  106  A    between atoms: _236  and  _238
REMARK  107  A    between atoms: _238  and  _239
REMARK  108  A    between atoms: _238  and  _241
REMARK  109  A    between atoms: _241  and  _242
REMARK  110  A    between atoms: _245  and  _247
REMARK  111  A    between atoms: _247  and  _248
REMARK  112  A    between atoms: _247  and  _250
REMARK  113  A    between atoms: _250  and  _251
REMARK  114  A    between atoms: _254  and  _256
REMARK  115  A    between atoms: _256  and  _257
REMARK  116  A    between atoms: _256  and  _259
REMARK  117  A    between atoms: _259  and  _260
REMARK  118  A    between atoms: _263  and  _265
REMARK  119  A    between atoms: _265  and  _266
REMARK  120  A    between atoms: _265  and  _268
REMARK  121  A    between atoms: _271  and  _273
REMARK  122  A    between atoms: _273  and  _274
REMARK  123  A    between atoms: _273  and  _276
REMARK  124  A    between atoms: _276  and  _277
REMARK  125  A    between atoms: _283  and  _285
REMARK  126  A    between atoms: _285  and  _286
REMARK  127  A    between atoms: _285  and  _288
REMARK  128  A    between atoms: _288  and  _289
REMARK  129  A    between atoms: _289  and  _290
REMARK  130  A    between atoms: _293  and  _295
REMARK  131  A    between atoms: _295  and  _296
REMARK  132  A    between atoms: _295  and  _298
REMARK  133  A    between atoms: _298  and  _299
REMARK  134  A    between atoms: _305  and  _307
REMARK  135  A    between atoms: _307  and  _308
REMARK  136  A    between atoms: _307  and  _310
REMARK  137  A    between atoms: _310  and  _311
REMARK  138  A    between atoms: _314  and  _316
REMARK  139  A    between atoms: _316  and  _317
REMARK  140  A    between atoms: _316  and  _319
REMARK  141  A    between atoms: _319  and  _320
REMARK  142  A    between atoms: _325  and  _327
REMARK  143  A    between atoms: _327  and  _328
REMARK  144  A    between atoms: _327  and  _330
REMARK  145  A    between atoms: _330  and  _331
REMARK  146  A    between atoms: _331  and  _332
REMARK  147  A    between atoms: _337  and  _339
REMARK  148  A    between atoms: _339  and  _340
REMARK  149  A    between atoms: _339  and  _342
REMARK  150  A    between atoms: _342  and  _343
REMARK  151  A    between atoms: _346  and  _348
REMARK  152  A    between atoms: _348  and  _349
REMARK  153  A    between atoms: _348  and  _351
REMARK  154  A    between atoms: _351  and  _352
REMARK  155  A    between atoms: _355  and  _357
REMARK  156  A    between atoms: _357  and  _358
REMARK  157  A    between atoms: _357  and  _360
REMARK  158  A    between atoms: _360  and  _361
REMARK  159  A    between atoms: _361  and  _362
REMARK  160  A    between atoms: _362  and  _363
REMARK  161  A    between atoms: _363  and  _364
REMARK  162  A    between atoms: _368  and  _370
REMARK  163  A    between atoms: _370  and  _371
REMARK  164  A    between atoms: _370  and  _373
REMARK  165  A    between atoms: _373  and  _374
REMARK  166  A    between atoms: _374  and  _375
REMARK  167  A    between atoms: _375  and  _376
REMARK  168  A    between atoms: _376  and  _377
REMARK  169  A    between atoms: _381  and  _383
REMARK  170  A    between atoms: _383  and  _384
REMARK  171  A    between atoms: _383  and  _386
REMARK  172  A    between atoms: _386  and  _387
REMARK  173  A    between atoms: _394  and  _395
REMARK  174  A    between atoms: _400  and  _402
REMARK  175  A    between atoms: _402  and  _403
REMARK  176  A    between atoms: _402  and  _405
REMARK  177  A    between atoms: _405  and  _406
REMARK  178  A    between atoms: _406  and  _407
REMARK  179  A    between atoms: _412  and  _414
REMARK  180  A    between atoms: _414  and  _415
REMARK  181  A    between atoms: _414  and  _417
REMARK  182  A    between atoms: _417  and  _418
REMARK  183  A    between atoms: _423  and  _425
REMARK  184  A    between atoms: _425  and  _426
REMARK  185  A    between atoms: _425  and  _428
REMARK  186  A    between atoms: _428  and  _429
REMARK  187  A    between atoms: _432  and  _434
REMARK  188  A    between atoms: _434  and  _435
REMARK  189  A    between atoms: _434  and  _437
REMARK  190  A    between atoms: _437  and  _438
REMARK  191  A    between atoms: _441  and  _443
REMARK  192  A    between atoms: _443  and  _444
REMARK  193  A    between atoms: _443  and  _446
REMARK  194  A    between atoms: _446  and  _447
REMARK  195  A    between atoms: _450  and  _452
REMARK  196  A    between atoms: _452  and  _453
REMARK  197  A    between atoms: _452  and  _455
REMARK  198  A    between atoms: _455  and  _456
REMARK  199  A    between atoms: _456  and  _457
REMARK  200  A    between atoms: _457  and  _458
REMARK  201  A    between atoms: _458  and  _459
REMARK  202  A    between atoms: _463  and  _465
REMARK  203  A    between atoms: _465  and  _466
REMARK  204  A    between atoms: _465  and  _468
REMARK  205  A    between atoms: _468  and  _469
REMARK  206  A    between atoms: _472  and  _474
REMARK  207  A    between atoms: _474  and  _475
REMARK  208  A    between atoms: _478  and  _480
REMARK  209  A    between atoms: _480  and  _481
REMARK  210  A    between atoms: _480  and  _483
REMARK  211  A    between atoms: _483  and  _484
REMARK  212  A    between atoms: _487  and  _489
REMARK  213  A    between atoms: _489  and  _490
REMARK  214  A    between atoms: _489  and  _492
REMARK  215  A    between atoms: _492  and  _493
REMARK  216  A    between atoms: _499  and  _501
REMARK  217  A    between atoms: _501  and  _502
REMARK                            x       y       z     vdW  Elec       q    Type
REMARK                         _______ _______ _______ _____ _____    ______ ____
ROOT
ATOM      1  C   ASN A   3       6.426  26.070  16.019  0.00  0.00    +0.241 C 
ATOM      2  N   LEU A   4       6.322  27.370  16.247  0.00  0.00    -0.297 N 
ATOM      3  H   LEU A   4       5.381  27.811  16.296  0.00  0.00    +0.150 HD
ATOM      4  O   ASN A   3       7.506  25.528  15.812  0.00  0.00    -0.273 OA
ENDROOT
BRANCH   1   5
ATOM      5  CA  ASN A   3       5.135  25.266  15.949  0.00  0.00    +0.158 C 
BRANCH   5   8
ATOM      6  C   GLN A   2       3.122  26.147  17.049  0.00  0.00    +0.241 C 
ATOM      7  O   GLN A   2       3.393  25.602  18.122  0.00  0.00    -0.273 OA
ATOM      8  N   ASN A   3       3.907  26.062  15.975  0.00  0.00    -0.297 N 
ATOM      9  H   ASN A   3       3.635  26.584  15.118  0.00  0.00    +0.150 HD
BRANCH   6  10
ATOM     10  CA  GLN A   2       1.861  27.008  16.915  0.00  0.00    +0.149 C 
BRANCH  10  13
ATOM     11  C   PRO A   1       2.902  28.987  15.912  0.00  0.00    +0.239 C 
ATOM     12  O   PRO A   1       3.765  29.085  16.796  0.00  0.00    -0.274 OA
ATOM     13  N   GLN A   2       1.962  28.038  15.886  0.00  0.00    -0.297 N 
ATOM     14  H   GLN A   2       1.277  28.033  15.104  0.00  0.00    +0.150 HD
BRANCH  11  16
ATOM     15  N   PRO A   1       2.468  29.382  13.488  0.00  0.00    -0.210 NA
ATOM     16  CA  PRO A   1       2.915  29.982  14.756  0.00  0.00    +0.149 C 
ATOM     17  CB  PRO A   1       1.908  31.105  14.988  0.00  0.00    +0.028 C 
ATOM     18  CG  PRO A   1       1.418  31.451  13.597  0.00  0.00    +0.021 C 
ATOM     19  CD  PRO A   1       1.362  30.132  12.872  0.00  0.00    +0.089 C 
ENDBRANCH  11  16
ENDBRANCH  10  13
BRANCH  10  20
ATOM     20  CB  GLN A   2       0.619  26.140  16.690  0.00  0.00    +0.039 C 
BRANCH  20  21
ATOM     21  CG  GLN A   2      -0.708  26.921  16.753  0.00  0.00    +0.087 C 
BRANCH  21  22
ATOM     22  CD  GLN A   2      -0.983  27.751  15.486  0.00  0.00    +0.219 C 
ATOM     23  NE2 GLN A   2      -2.111  28.453  15.471  0.00  0.00    -0.329 N 
ATOM     24 HE21 GLN A   2      -2.751  28.427  16.291  0.00  0.00    +0.145 HD
ATOM     25 HE22 GLN A   2      -2.354  29.028  14.640  0.00  0.00    +0.145 HD
ATOM     26  OE1 GLN A   2      -0.197  27.751  14.541  0.00  0.00    -0.275 OA
ENDBRANCH  21  22
ENDBRANCH  20  21
ENDBRANCH  10  20
ENDBRANCH   6  10
ENDBRANCH   5   8
BRANCH   5  27
ATOM     27  CB  ASN A   3       5.197  24.429  14.675  0.00  0.00    +0.114 C 
BRANCH  27  28
ATOM     28  CG  ASN A   3       4.157  23.334  14.645  0.00  0.00    +0.222 C 
ATOM     29  OD1 ASN A   3       3.526  23.025  15.663  0.00  0.00    -0.275 OA
ATOM     30  ND2 ASN A   3       3.972  22.731  13.469  0.00  0.00    -0.329 N 
ATOM     31 HD21 ASN A   3       3.273  21.966  13.381  0.00  0.00    +0.145 HD
ATOM     32 HD22 ASN A   3       4.527  23.026  12.640  0.00  0.00    +0.145 HD
ENDBRANCH  27  28
ENDBRANCH   5  27
ENDBRANCH   1   5
BRANCH   2  33
ATOM     33  CA  LEU A   4       7.511  28.187  16.430  0.00  0.00    +0.149 C 
BRANCH  33  34
ATOM     34  C   LEU A   4       7.524  28.569  17.898  0.00  0.00    +0.241 C 
ATOM     35  N   LEU A   5       8.566  28.145  18.605  0.00  0.00    -0.297 N 
ATOM     36  H   LEU A   5       9.328  27.628  18.122  0.00  0.00    +0.150 HD
ATOM     37  O   LEU A   4       6.581  29.198  18.389  0.00  0.00    -0.273 OA
BRANCH  35  38
ATOM     38  CA  LEU A   5       8.670  28.386  20.045  0.00  0.00    +0.149 C 
BRANCH  38  39
ATOM     39  C   LEU A   5       9.659  29.521  20.336  0.00  0.00    +0.241 C 
ATOM     40  N   ILE A   6       9.401  30.276  21.392  0.00  0.00    -0.298 N 
ATOM     41  H   ILE A   6       8.584  30.048  21.994  0.00  0.00    +0.150 HD
ATOM     42  O   LEU A   5      10.629  29.714  19.619  0.00  0.00    -0.273 OA
BRANCH  40  43
ATOM     43  CA  ILE A   6      10.235  31.416  21.727  0.00  0.00    +0.137 C 
BRANCH  43  44
ATOM     44  CB  ILE A   6       9.465  32.742  21.594  0.00  0.00    +0.026 C 
ATOM     45  CG2 ILE A   6       9.020  32.966  20.167  0.00  0.00    +0.002 C 
BRANCH  44  46
ATOM     46  CG1 ILE A   6       8.270  32.763  22.552  0.00  0.00    +0.002 C 
ATOM     47  CD1 ILE A   6       7.583  34.111  22.626  0.00  0.00    +0.000 C 
ENDBRANCH  44  46
ENDBRANCH  43  44
BRANCH  43  48
ATOM     48  C   ILE A   6      10.701  31.301  23.158  0.00  0.00    +0.227 C 
ATOM     49  O   ILE A   6      10.017  30.710  23.995  0.00  0.00    -0.286 OA
ENDBRANCH  43  48
ENDBRANCH  40  43
ENDBRANCH  38  39
BRANCH  38  50
ATOM     50  CB  LEU A   5       9.061  27.100  20.797  0.00  0.00    +0.029 C 
BRANCH  50  51
ATOM     51  CG  LEU A   5       8.250  25.827  20.501  0.00  0.00    +0.002 C 
ATOM     52  CD2 LEU A   5       8.797  24.644  21.278  0.00  0.00    +0.000 C 
ATOM     53  CD1 LEU A   5       6.741  25.983  20.794  0.00  0.00    +0.000 C 
ENDBRANCH  50  51
ENDBRANCH  38  50
ENDBRANCH  35  38
ENDBRANCH  33  34
BRANCH  33  54
ATOM     54  CB  LEU A   4       7.478  29.425  15.519  0.00  0.00    +0.029 C 
BRANCH  54  55
ATOM     55  CG  LEU A   4       7.164  29.160  14.037  0.00  0.00    +0.002 C 
ATOM     56  CD2 LEU A   4       8.188  28.199  13.395  0.00  0.00    +0.000 C 
ATOM     57  CD1 LEU A   4       7.066  30.461  13.243  0.00  0.00    +0.000 C 
ENDBRANCH  54  55
ENDBRANCH  33  54
ENDBRANCH   2  33
TORSDOF 22
REMARK  Name = ../refined-set-2016/4bcm/4bcm_pocket.pdb
REMARK  217 active torsions:
REMARK  status: ('A' for Active; 'I' for Inactive)
REMARK    1  A    between atoms: _1  and  _3
REMARK    2  A    between atoms: _3  and  _4
REMARK    3  A    between atoms: _3  and  _6
REMARK    4  A    between atoms: _6  and  _7
REMARK    5  A    between atoms: _7  and  _8
REMARK    6  A    between atoms: _11  and  _13
REMARK    7  A    between atoms: _13  and  _14
REMARK    8  A    between atoms: _13  and  _16
REMARK    9  A    between atoms: _16  and  _17
REMARK   10  A    between atoms: _17  and  _18
REMARK   11  A    between atoms: _18  and  _19
REMARK   12  A    between atoms: _19  and  _20
REMARK   13  A    between atoms: _24  and  _26
REMARK   14  A    between atoms: _26  and  _27
REMARK   15  A    between atoms: _26  and  _29
REMARK   16  A    between atoms: _29  and  _30
REMARK   17  A    between atoms: _33  and  _35
REMARK   18  A    between atoms: _35  and  _36
REMARK   19  A    between atoms: _38  and  _40
REMARK   20  A    between atoms: _40  and  _41
REMARK   21  A    between atoms: _40  and  _43
REMARK   22  A    between atoms: _43  and  _44
REMARK   23  A    between atoms: _44  and  _45
REMARK   24  A    between atoms: _48  and  _50
REMARK   25  A    between atoms: _50  and  _51
REMARK   26  A    between atoms: _53  and  _55
REMARK   27  A    between atoms: _55  and  _56
REMARK   28  A    between atoms: _55  and  _58
REMARK   29  A    between atoms: _58  and  _59
REMARK   30  A    between atoms: _62  and  _64
REMARK   31  A    between atoms: _64  and  _65
REMARK   32  A    between atoms: _64  and  _67
REMARK   33  A    between atoms: _67  and  _68
REMARK   34  A    between atoms: _73  and  _74
REMARK   35  A    between atoms: _76  and  _78
REMARK   36  A    between atoms: _78  and  _79
REMARK   37  A    between atoms: _81  and  _83
REMARK   38  A    between atoms: _83  and  _84
REMARK   39  A    between atoms: _83  and  _86
REMARK   40  A    between atoms: _89  and  _91
REMARK   41  A    between atoms: _91  and  _92
REMARK   42  A    between atoms: _91  and  _94
REMARK   43  A    between atoms: _97  and  _99
REMARK   44  A    between atoms: _99  and  _100
REMARK   45  A    between atoms: _99  and  _102
REMARK   46  A    between atoms: _102  and  _103
REMARK   47  A    between atoms: _108  and  _109
REMARK   48  A    between atoms: _111  and  _113
REMARK   49  A    between atoms: _113  and  _114
REMARK   50  A    between atoms: _113  and  _116
REMARK   51  A    between atoms: _116  and  _117
REMARK   52  A    between atoms: _117  and  _118
REMARK   53  A    between atoms: _118  and  _119
REMARK   54  A    between atoms: _119  and  _120
REMARK   55  A    between atoms: _124  and  _126
REMARK   56  A    between atoms: _126  and  _127
REMARK   57  A    between atoms: _130  and  _132
REMARK   58  A    between atoms: _132  and  _133
REMARK   59  A    between atoms: _132  and  _135
REMARK   60  A    between atoms: _138  and  _140
REMARK   61  A    between atoms: _140  and  _141
REMARK   62  A    between atoms: _140  and  _143
REMARK   63  A    between atoms: _146  and  _148
REMARK   64  A    between atoms: _148  and  _149
REMARK   65  A    between atoms: _152  and  _154
REMARK   66  A    between atoms: _154  and  _155
REMARK   67  A    between atoms: _154  and  _157
REMARK   68  A    between atoms: _157  and  _158
REMARK   69  A    between atoms: _161  and  _163
REMARK   70  A    between atoms: _163  and  _164
REMARK   71  A    between atoms: _163  and  _166
REMARK   72  A    between atoms: _166  and  _167
REMARK   73  A    between atoms: _167  and  _168
REMARK   74  A    between atoms: _168  and  _169
REMARK   75  A    between atoms: _169  and  _170
REMARK   76  A    between atoms: _174  and  _176
REMARK   77  A    between atoms: _176  and  _177
REMARK   78  A    between atoms: _176  and  _179
REMARK   79  A    between atoms: _179  and  _180
REMARK   80  A    between atoms: _180  and  _181
REMARK   81  A    between atoms: _181  and  _182
REMARK   82  A    between atoms: _182  and  _183
REMARK   83  A    between atoms: _187  and  _189
REMARK   84  A    between atoms: _189  and  _190
REMARK   85  A    between atoms: _189  and  _192
REMARK   86  A    between atoms: _192  and  _193
REMARK   87  A    between atoms: _193  and  _194
REMARK   88  A    between atoms: _197  and  _199
REMARK   89  A    between atoms: _199  and  _200
REMARK   90  A    between atoms: _199  and  _202
REMARK   91  A    between atoms: _202  and  _203
REMARK   92  A    between atoms: _206  and  _208
REMARK   93  A    between atoms: _208  and  _209
REMARK   94  A    between atoms: _208  and  _211
REMARK   95  A    between atoms: _211  and  _212
REMARK   96  A    between atoms: _215  and  _217
REMARK   97  A    between atoms: _217  and  _218
REMARK   98  A    between atoms: _217  and  _220
REMARK   99  A    between atoms: _223  and  _225
REMARK  100  A    between atoms: _225  and  _226
REMARK  101  A    between atoms: _225  and  _228
REMARK  102  A    between atoms: _228  and  _229
REMARK  103  A    between atoms: _229  and  _230
REMARK  104  A    between atoms: _230  and  _231
REMARK  105  A    between atoms: _231  and  _232
REMARK  106  A    between atoms: _236  and  _238
REMARK  107  A    between atoms: _238  and  _239
REMARK  108  A    between atoms: _238  and  _241
REMARK  109  A    between atoms: _241  and  _242
REMARK  110  A    between atoms: _245  and  _247
REMARK  111  A    between atoms: _247  and  _248
REMARK  112  A    between atoms: _247  and  _250
REMARK  113  A    between atoms: _250  and  _251
REMARK  114  A    between atoms: _254  and  _256
REMARK  115  A    between atoms: _256  and  _257
REMARK  116  A    between atoms: _256  and  _259
REMARK  117  A    between atoms: _259  and  _260
REMARK  118  A    between atoms: _263  and  _265
REMARK  119  A    between atoms: _265  and  _266
REMARK  120  A    between atoms: _265  and  _268
REMARK  121  A    between atoms: _271  and  _273
REMARK  122  A    between atoms: _273  and  _274
REMARK  123  A    between atoms: _273  and  _276
REMARK  124  A    between atoms: _276  and  _277
REMARK  125  A    between atoms: _283  and  _285
REMARK  126  A    between atoms: _285  and  _286
REMARK  127  A    between atoms: _285  and  _288
REMARK  128  A    between atoms: _288  and  _289
REMARK  129  A    between atoms: _289  and  _290
REMARK  130  A    between atoms: _293  and  _295
REMARK  131  A    between atoms: _295  and  _296
REMARK  132  A    between atoms: _295  and  _298
REMARK  133  A    between atoms: _298  and  _299
REMARK  134  A    between atoms: _305  and  _307
REMARK  135  A    between atoms: _307  and  _308
REMARK  136  A    between atoms: _307  and  _310
REMARK  137  A    between atoms: _310  and  _311
REMARK  138  A    between atoms: _314  and  _316
REMARK  139  A    between atoms: _316  and  _317
REMARK  140  A    between atoms: _316  and  _319
REMARK  141  A    between atoms: _319  and  _320
REMARK  142  A    between atoms: _325  and  _327
REMARK  143  A    between atoms: _327  and  _328
REMARK  144  A    between atoms: _327  and  _330
REMARK  145  A    between atoms: _330  and  _331
REMARK  146  A    between atoms: _331  and  _332
REMARK  147  A    between atoms: _337  and  _339
REMARK  148  A    between atoms: _339  and  _340
REMARK  149  A    between atoms: _339  and  _342
REMARK  150  A    between atoms: _342  and  _343
REMARK  151  A    between atoms: _346  and  _348
REMARK  152  A    between atoms: _348  and  _349
REMARK  153  A    between atoms: _348  and  _351
REMARK  154  A    between atoms: _351  and  _352
REMARK  155  A    between atoms: _355  and  _357
REMARK  156  A    between atoms: _357  and  _358
REMARK  157  A    between atoms: _357  and  _360
REMARK  158  A    between atoms: _360  and  _361
REMARK  159  A    between atoms: _361  and  _362
REMARK  160  A    between atoms: _362  and  _363
REMARK  161  A    between atoms: _363  and  _364
REMARK  162  A    between atoms: _368  and  _370
REMARK  163  A    between atoms: _370  and  _371
REMARK  164  A    between atoms: _370  and  _373
REMARK  165  A    between atoms: _373  and  _374
REMARK  166  A    between atoms: _374  and  _375
REMARK  167  A    between atoms: _375  and  _376
REMARK  168  A    between atoms: _376  and  _377
REMARK  169  A    between atoms: _381  and  _383
REMARK  170  A    between atoms: _383  and  _384
REMARK  171  A    between atoms: _383  and  _386
REMARK  172  A    between atoms: _386  and  _387
REMARK  173  A    between atoms: _394  and  _395
REMARK  174  A    between atoms: _400  and  _402
REMARK  175  A    between atoms: _402  and  _403
REMARK  176  A    between atoms: _402  and  _405
REMARK  177  A    between atoms: _405  and  _406
REMARK  178  A    between atoms: _406  and  _407
REMARK  179  A    between atoms: _412  and  _414
REMARK  180  A    between atoms: _414  and  _415
REMARK  181  A    between atoms: _414  and  _417
REMARK  182  A    between atoms: _417  and  _418
REMARK  183  A    between atoms: _423  and  _425
REMARK  184  A    between atoms: _425  and  _426
REMARK  185  A    between atoms: _425  and  _428
REMARK  186  A    between atoms: _428  and  _429
REMARK  187  A    between atoms: _432  and  _434
REMARK  188  A    between atoms: _434  and  _435
REMARK  189  A    between atoms: _434  and  _437
REMARK  190  A    between atoms: _437  and  _438
REMARK  191  A    between atoms: _441  and  _443
REMARK  192  A    between atoms: _443  and  _444
REMARK  193  A    between atoms: _443  and  _446
REMARK  194  A    between atoms: _446  and  _447
REMARK  195  A    between atoms: _450  and  _452
REMARK  196  A    between atoms: _452  and  _453
REMARK  197  A    between atoms: _452  and  _455
REMARK  198  A    between atoms: _455  and  _456
REMARK  199  A    between atoms: _456  and  _457
REMARK  200  A    between atoms: _457  and  _458
REMARK  201  A    between atoms: _458  and  _459
REMARK  202  A    between atoms: _463  and  _465
REMARK  203  A    between atoms: _465  and  _466
REMARK  204  A    between atoms: _465  and  _468
REMARK  205  A    between atoms: _468  and  _469
REMARK  206  A    between atoms: _472  and  _474
REMARK  207  A    between atoms: _474  and  _475
REMARK  208  A    between atoms: _478  and  _480
REMARK  209  A    between atoms: _480  and  _481
REMARK  210  A    between atoms: _480  and  _483
REMARK  211  A    between atoms: _483  and  _484
REMARK  212  A    between atoms: _487  and  _489
REMARK  213  A    between atoms: _489  and  _490
REMARK  214  A    between atoms: _489  and  _492
REMARK  215  A    between atoms: _492  and  _493
REMARK  216  A    between atoms: _499  and  _501
REMARK  217  A    between atoms: _501  and  _502
REMARK                            x       y       z     vdW  Elec       q    Type
REMARK                         _______ _______ _______ _____ _____    ______ ____
ROOT
ATOM      1  C   ALA A   3       8.656  21.970  15.629  0.00  0.00    +0.241 C 
ATOM      2  N   ASP A   4       8.397  20.806  16.216  0.00  0.00    -0.297 N 
ATOM      3  H   ASP A   4       8.863  20.593  17.121  0.00  0.00    +0.150 HD
ATOM      4  O   ALA A   3       8.128  22.344  14.571  0.00  0.00    -0.273 OA
ENDROOT
BRANCH   1   5
ATOM      5  CA  ALA A   3       9.641  22.855  16.362  0.00  0.00    +0.149 C 
ATOM      6  CB  ALA A   3       9.076  23.262  17.714  0.00  0.00    +0.031 C 
BRANCH   5   9
ATOM      7  C   LEU A   2      11.178  24.521  15.481  0.00  0.00    +0.241 C 
ATOM      8  O   LEU A   2      12.139  24.044  16.088  0.00  0.00    -0.273 OA
ATOM      9  N   ALA A   3       9.949  24.034  15.561  0.00  0.00    -0.297 N 
ATOM     10  H   ALA A   3       9.183  24.505  15.039  0.00  0.00    +0.150 HD
BRANCH   7  11
ATOM     11  CA  LEU A   2      11.359  25.713  14.566  0.00  0.00    +0.149 C 
BRANCH  11  14
ATOM     12  C   LYS A   1      11.936  27.278  16.322  0.00  0.00    +0.238 C 
ATOM     13  O   LYS A   1      10.812  27.190  16.822  0.00  0.00    -0.274 OA
ATOM     14  N   LEU A   2      12.273  26.657  15.191  0.00  0.00    -0.297 N 
ATOM     15  H   LEU A   2      13.196  26.849  14.752  0.00  0.00    +0.150 HD
BRANCH  12  16
ATOM     16  CA  LYS A   1      13.019  28.119  16.997  0.00  0.00    +0.145 C 
BRANCH  16  17
ATOM     17  N   LYS A   1      12.526  29.366  17.599  0.00  0.00    -0.238 NA
ATOM     18  H   LYS A   1      11.618  29.365  18.106  0.00  0.00    +0.142 HD
ENDBRANCH  16  17
BRANCH  16  19
ATOM     19  CB  LYS A   1      13.699  27.267  18.057  0.00  0.00    +0.026 C 
BRANCH  19  20
ATOM     20  CG  LYS A   1      14.657  28.054  18.912  0.00  0.00    -0.000 C 
BRANCH  20  21
ATOM     21  CD  LYS A   1      15.596  27.156  19.662  0.00  0.00    -0.024 C 
BRANCH  21  22
ATOM     22  CE  LYS A   1      16.421  27.966  20.636  0.00  0.00    -0.086 C 
BRANCH  22  23
ATOM     23  NZ  LYS A   1      17.556  27.179  21.146  0.00  0.00    +0.380 N 
ATOM     24  HZ1 LYS A   1      18.106  27.758  21.812  0.00  0.00    -0.089 HD
ATOM     25  HZ2 LYS A   1      17.198  26.333  21.633  0.00  0.00    -0.089 HD
ATOM     26  HZ3 LYS A   1      18.163  26.892  20.351  0.00  0.00    -0.089 HD
ENDBRANCH  22  23
ENDBRANCH  21  22
ENDBRANCH  20  21
ENDBRANCH  19  20
ENDBRANCH  16  19
ENDBRANCH  12  16
ENDBRANCH  11  14
BRANCH  11  27
ATOM     27  CB  LEU A   2      11.885  25.203  13.225  0.00  0.00    +0.029 C 
BRANCH  27  28
ATOM     28  CG  LEU A   2      12.601  26.149  12.280  0.00  0.00    +0.002 C 
ATOM     29  CD2 LEU A   2      11.820  27.398  12.124  0.00  0.00    +0.000 C 
ATOM     30  CD1 LEU A   2      12.790  25.454  10.945  0.00  0.00    +0.000 C 
ENDBRANCH  27  28
ENDBRANCH  11  27
ENDBRANCH   7  11
ENDBRANCH   5   9
ENDBRANCH   1   5
BRANCH   2  31
ATOM     31  CA  ASP A   4       7.487  19.810  15.650  0.00  0.00    +0.160 C 
BRANCH  31  32
ATOM     32  C   ASP A   4       7.898  19.329  14.250  0.00  0.00    +0.241 C 
ATOM     33  N   PHE A   5       8.869  18.432  14.218  0.00  0.00    -0.297 N 
ATOM     34  H   PHE A   5       9.313  18.141  15.112  0.00  0.00    +0.150 HD
ATOM     35  O   ASP A   4       7.332  19.735  13.236  0.00  0.00    -0.273 OA
BRANCH  33  36
ATOM     36  CA  PHE A   5       9.338  17.839  12.977  0.00  0.00    +0.153 C 
BRANCH  36  37
ATOM     37  C   PHE A   5       8.629  16.520  12.668  0.00  0.00    +0.241 C 
ATOM     38  N   GLY A   6       7.422  16.354  13.204  0.00  0.00    -0.296 N 
ATOM     39  H   GLY A   6       7.040  17.095  13.825  0.00  0.00    +0.150 HD
ATOM     40  O   PHE A   5       9.160  15.680  11.951  0.00  0.00    -0.273 OA
BRANCH  38  41
ATOM     41  CA  GLY A   6       6.622  15.167  12.947  0.00  0.00    +0.163 C 
BRANCH  41  42
ATOM     42  C   GLY A   6       6.129  15.043  11.516  0.00  0.00    +0.229 C 
ATOM     43  O   GLY A   6       5.942  13.935  11.019  0.00  0.00    -0.286 OA
ENDBRANCH  41  42
ENDBRANCH  38  41
ENDBRANCH  36  37
BRANCH  36  44
ATOM     44  CB  PHE A   5      10.862  17.658  13.031  0.00  0.00    +0.055 C 
BRANCH  44  45
ATOM     45  CG  PHE A   5      11.607  18.931  12.807  0.00  0.00    -0.020 A 
ATOM     46  CD2 PHE A   5      11.595  19.932  13.765  0.00  0.00    -0.004 A 
ATOM     47  CE2 PHE A   5      12.254  21.137  13.551  0.00  0.00    -0.000 A 
ATOM     48  CZ  PHE A   5      12.928  21.349  12.383  0.00  0.00    -0.000 A 
ATOM     49  CE1 PHE A   5      12.947  20.358  11.411  0.00  0.00    -0.000 A 
ATOM     50  CD1 PHE A   5      12.279  19.154  11.627  0.00  0.00    -0.004 A 
ENDBRANCH  44  45
ENDBRANCH  36  44
ENDBRANCH  33  36
ENDBRANCH  31  32
BRANCH  31  51
ATOM     51  CB  ASP A   4       6.032  20.295  15.645  0.00  0.00    +0.143 C 
BRANCH  51  52
ATOM     52  CG  ASP A   4       5.032  19.129  15.666  0.00  0.00    +0.367 C 
ATOM     53  OD2 ASP A   4       3.842  19.363  15.988  0.00  0.00    -0.246 OA
ATOM     54  OD1 ASP A   4       5.435  17.974  15.360  0.00  0.00    -0.246 OA
ENDBRANCH  51  52
ENDBRANCH  31  51
ENDBRANCH   2  31
TORSDOF 23
REMARK  Name = ../refined-set-2016/4bcm/4bcm_pocket.pdb
REMARK  217 active torsions:
REMARK  status: ('A' for Active; 'I' for Inactive)
REMARK    1  A    between atoms: _1  and  _3
REMARK    2  A    between atoms: _3  and  _4
REMARK    3  A    between atoms: _3  and  _6
REMARK    4  A    between atoms: _6  and  _7
REMARK    5  A    between atoms: _7  and  _8
REMARK    6  A    between atoms: _11  and  _13
REMARK    7  A    between atoms: _13  and  _14
REMARK    8  A    between atoms: _13  and  _16
REMARK    9  A    between atoms: _16  and  _17
REMARK   10  A    between atoms: _17  and  _18
REMARK   11  A    between atoms: _18  and  _19
REMARK   12  A    between atoms: _19  and  _20
REMARK   13  A    between atoms: _24  and  _26
REMARK   14  A    between atoms: _26  and  _27
REMARK   15  A    between atoms: _26  and  _29
REMARK   16  A    between atoms: _29  and  _30
REMARK   17  A    between atoms: _33  and  _35
REMARK   18  A    between atoms: _35  and  _36
REMARK   19  A    between atoms: _38  and  _40
REMARK   20  A    between atoms: _40  and  _41
REMARK   21  A    between atoms: _40  and  _43
REMARK   22  A    between atoms: _43  and  _44
REMARK   23  A    between atoms: _44  and  _45
REMARK   24  A    between atoms: _48  and  _50
REMARK   25  A    between atoms: _50  and  _51
REMARK   26  A    between atoms: _53  and  _55
REMARK   27  A    between atoms: _55  and  _56
REMARK   28  A    between atoms: _55  and  _58
REMARK   29  A    between atoms: _58  and  _59
REMARK   30  A    between atoms: _62  and  _64
REMARK   31  A    between atoms: _64  and  _65
REMARK   32  A    between atoms: _64  and  _67
REMARK   33  A    between atoms: _67  and  _68
REMARK   34  A    between atoms: _73  and  _74
REMARK   35  A    between atoms: _76  and  _78
REMARK   36  A    between atoms: _78  and  _79
REMARK   37  A    between atoms: _81  and  _83
REMARK   38  A    between atoms: _83  and  _84
REMARK   39  A    between atoms: _83  and  _86
REMARK   40  A    between atoms: _89  and  _91
REMARK   41  A    between atoms: _91  and  _92
REMARK   42  A    between atoms: _91  and  _94
REMARK   43  A    between atoms: _97  and  _99
REMARK   44  A    between atoms: _99  and  _100
REMARK   45  A    between atoms: _99  and  _102
REMARK   46  A    between atoms: _102  and  _103
REMARK   47  A    between atoms: _108  and  _109
REMARK   48  A    between atoms: _111  and  _113
REMARK   49  A    between atoms: _113  and  _114
REMARK   50  A    between atoms: _113  and  _116
REMARK   51  A    between atoms: _116  and  _117
REMARK   52  A    between atoms: _117  and  _118
REMARK   53  A    between atoms: _118  and  _119
REMARK   54  A    between atoms: _119  and  _120
REMARK   55  A    between atoms: _124  and  _126
REMARK   56  A    between atoms: _126  and  _127
REMARK   57  A    between atoms: _130  and  _132
REMARK   58  A    between atoms: _132  and  _133
REMARK   59  A    between atoms: _132  and  _135
REMARK   60  A    between atoms: _138  and  _140
REMARK   61  A    between atoms: _140  and  _141
REMARK   62  A    between atoms: _140  and  _143
REMARK   63  A    between atoms: _146  and  _148
REMARK   64  A    between atoms: _148  and  _149
REMARK   65  A    between atoms: _152  and  _154
REMARK   66  A    between atoms: _154  and  _155
REMARK   67  A    between atoms: _154  and  _157
REMARK   68  A    between atoms: _157  and  _158
REMARK   69  A    between atoms: _161  and  _163
REMARK   70  A    between atoms: _163  and  _164
REMARK   71  A    between atoms: _163  and  _166
REMARK   72  A    between atoms: _166  and  _167
REMARK   73  A    between atoms: _167  and  _168
REMARK   74  A    between atoms: _168  and  _169
REMARK   75  A    between atoms: _169  and  _170
REMARK   76  A    between atoms: _174  and  _176
REMARK   77  A    between atoms: _176  and  _177
REMARK   78  A    between atoms: _176  and  _179
REMARK   79  A    between atoms: _179  and  _180
REMARK   80  A    between atoms: _180  and  _181
REMARK   81  A    between atoms: _181  and  _182
REMARK   82  A    between atoms: _182  and  _183
REMARK   83  A    between atoms: _187  and  _189
REMARK   84  A    between atoms: _189  and  _190
REMARK   85  A    between atoms: _189  and  _192
REMARK   86  A    between atoms: _192  and  _193
REMARK   87  A    between atoms: _193  and  _194
REMARK   88  A    between atoms: _197  and  _199
REMARK   89  A    between atoms: _199  and  _200
REMARK   90  A    between atoms: _199  and  _202
REMARK   91  A    between atoms: _202  and  _203
REMARK   92  A    between atoms: _206  and  _208
REMARK   93  A    between atoms: _208  and  _209
REMARK   94  A    between atoms: _208  and  _211
REMARK   95  A    between atoms: _211  and  _212
REMARK   96  A    between atoms: _215  and  _217
REMARK   97  A    between atoms: _217  and  _218
REMARK   98  A    between atoms: _217  and  _220
REMARK   99  A    between atoms: _223  and  _225
REMARK  100  A    between atoms: _225  and  _226
REMARK  101  A    between atoms: _225  and  _228
REMARK  102  A    between atoms: _228  and  _229
REMARK  103  A    between atoms: _229  and  _230
REMARK  104  A    between atoms: _230  and  _231
REMARK  105  A    between atoms: _231  and  _232
REMARK  106  A    between atoms: _236  and  _238
REMARK  107  A    between atoms: _238  and  _239
REMARK  108  A    between atoms: _238  and  _241
REMARK  109  A    between atoms: _241  and  _242
REMARK  110  A    between atoms: _245  and  _247
REMARK  111  A    between atoms: _247  and  _248
REMARK  112  A    between atoms: _247  and  _250
REMARK  113  A    between atoms: _250  and  _251
REMARK  114  A    between atoms: _254  and  _256
REMARK  115  A    between atoms: _256  and  _257
REMARK  116  A    between atoms: _256  and  _259
REMARK  117  A    between atoms: _259  and  _260
REMARK  118  A    between atoms: _263  and  _265
REMARK  119  A    between atoms: _265  and  _266
REMARK  120  A    between atoms: _265  and  _268
REMARK  121  A    between atoms: _271  and  _273
REMARK  122  A    between atoms: _273  and  _274
REMARK  123  A    between atoms: _273  and  _276
REMARK  124  A    between atoms: _276  and  _277
REMARK  125  A    between atoms: _283  and  _285
REMARK  126  A    between atoms: _285  and  _286
REMARK  127  A    between atoms: _285  and  _288
REMARK  128  A    between atoms: _288  and  _289
REMARK  129  A    between atoms: _289  and  _290
REMARK  130  A    between atoms: _293  and  _295
REMARK  131  A    between atoms: _295  and  _296
REMARK  132  A    between atoms: _295  and  _298
REMARK  133  A    between atoms: _298  and  _299
REMARK  134  A    between atoms: _305  and  _307
REMARK  135  A    between atoms: _307  and  _308
REMARK  136  A    between atoms: _307  and  _310
REMARK  137  A    between atoms: _310  and  _311
REMARK  138  A    between atoms: _314  and  _316
REMARK  139  A    between atoms: _316  and  _317
REMARK  140  A    between atoms: _316  and  _319
REMARK  141  A    between atoms: _319  and  _320
REMARK  142  A    between atoms: _325  and  _327
REMARK  143  A    between atoms: _327  and  _328
REMARK  144  A    between atoms: _327  and  _330
REMARK  145  A    between atoms: _330  and  _331
REMARK  146  A    between atoms: _331  and  _332
REMARK  147  A    between atoms: _337  and  _339
REMARK  148  A    between atoms: _339  and  _340
REMARK  149  A    between atoms: _339  and  _342
REMARK  150  A    between atoms: _342  and  _343
REMARK  151  A    between atoms: _346  and  _348
REMARK  152  A    between atoms: _348  and  _349
REMARK  153  A    between atoms: _348  and  _351
REMARK  154  A    between atoms: _351  and  _352
REMARK  155  A    between atoms: _355  and  _357
REMARK  156  A    between atoms: _357  and  _358
REMARK  157  A    between atoms: _357  and  _360
REMARK  158  A    between atoms: _360  and  _361
REMARK  159  A    between atoms: _361  and  _362
REMARK  160  A    between atoms: _362  and  _363
REMARK  161  A    between atoms: _363  and  _364
REMARK  162  A    between atoms: _368  and  _370
REMARK  163  A    between atoms: _370  and  _371
REMARK  164  A    between atoms: _370  and  _373
REMARK  165  A    between atoms: _373  and  _374
REMARK  166  A    between atoms: _374  and  _375
REMARK  167  A    between atoms: _375  and  _376
REMARK  168  A    between atoms: _376  and  _377
REMARK  169  A    between atoms: _381  and  _383
REMARK  170  A    between atoms: _383  and  _384
REMARK  171  A    between atoms: _383  and  _386
REMARK  172  A    between atoms: _386  and  _387
REMARK  173  A    between atoms: _394  and  _395
REMARK  174  A    between atoms: _400  and  _402
REMARK  175  A    between atoms: _402  and  _403
REMARK  176  A    between atoms: _402  and  _405
REMARK  177  A    between atoms: _405  and  _406
REMARK  178  A    between atoms: _406  and  _407
REMARK  179  A    between atoms: _412  and  _414
REMARK  180  A    between atoms: _414  and  _415
REMARK  181  A    between atoms: _414  and  _417
REMARK  182  A    between atoms: _417  and  _418
REMARK  183  A    between atoms: _423  and  _425
REMARK  184  A    between atoms: _425  and  _426
REMARK  185  A    between atoms: _425  and  _428
REMARK  186  A    between atoms: _428  and  _429
REMARK  187  A    between atoms: _432  and  _434
REMARK  188  A    between atoms: _434  and  _435
REMARK  189  A    between atoms: _434  and  _437
REMARK  190  A    between atoms: _437  and  _438
REMARK  191  A    between atoms: _441  and  _443
REMARK  192  A    between atoms: _443  and  _444
REMARK  193  A    between atoms: _443  and  _446
REMARK  194  A    between atoms: _446  and  _447
REMARK  195  A    between atoms: _450  and  _452
REMARK  196  A    between atoms: _452  and  _453
REMARK  197  A    between atoms: _452  and  _455
REMARK  198  A    between atoms: _455  and  _456
REMARK  199  A    between atoms: _456  and  _457
REMARK  200  A    between atoms: _457  and  _458
REMARK  201  A    between atoms: _458  and  _459
REMARK  202  A    between atoms: _463  and  _465
REMARK  203  A    between atoms: _465  and  _466
REMARK  204  A    between atoms: _465  and  _468
REMARK  205  A    between atoms: _468  and  _469
REMARK  206  A    between atoms: _472  and  _474
REMARK  207  A    between atoms: _474  and  _475
REMARK  208  A    between atoms: _478  and  _480
REMARK  209  A    between atoms: _480  and  _481
REMARK  210  A    between atoms: _480  and  _483
REMARK  211  A    between atoms: _483  and  _484
REMARK  212  A    between atoms: _487  and  _489
REMARK  213  A    between atoms: _489  and  _490
REMARK  214  A    between atoms: _489  and  _492
REMARK  215  A    between atoms: _492  and  _493
REMARK  216  A    between atoms: _499  and  _501
REMARK  217  A    between atoms: _501  and  _502
REMARK                            x       y       z     vdW  Elec       q    Type
REMARK                         _______ _______ _______ _____ _____    ______ ____
ROOT
ATOM      1  O   HOH     1      16.023  23.739  28.358  0.00  0.00    +0.000 OA
ENDROOT
TORSDOF 0
REMARK  Name = ../refined-set-2016/4bcm/4bcm_pocket.pdb
REMARK  217 active torsions:
REMARK  status: ('A' for Active; 'I' for Inactive)
REMARK    1  A    between atoms: _1  and  _3
REMARK    2  A    between atoms: _3  and  _4
REMARK    3  A    between atoms: _3  and  _6
REMARK    4  A    between atoms: _6  and  _7
REMARK    5  A    between atoms: _7  and  _8
REMARK    6  A    between atoms: _11  and  _13
REMARK    7  A    between atoms: _13  and  _14
REMARK    8  A    between atoms: _13  and  _16
REMARK    9  A    between atoms: _16  and  _17
REMARK   10  A    between atoms: _17  and  _18
REMARK   11  A    between atoms: _18  and  _19
REMARK   12  A    between atoms: _19  and  _20
REMARK   13  A    between atoms: _24  and  _26
REMARK   14  A    between atoms: _26  and  _27
REMARK   15  A    between atoms: _26  and  _29
REMARK   16  A    between atoms: _29  and  _30
REMARK   17  A    between atoms: _33  and  _35
REMARK   18  A    between atoms: _35  and  _36
REMARK   19  A    between atoms: _38  and  _40
REMARK   20  A    between atoms: _40  and  _41
REMARK   21  A    between atoms: _40  and  _43
REMARK   22  A    between atoms: _43  and  _44
REMARK   23  A    between atoms: _44  and  _45
REMARK   24  A    between atoms: _48  and  _50
REMARK   25  A    between atoms: _50  and  _51
REMARK   26  A    between atoms: _53  and  _55
REMARK   27  A    between atoms: _55  and  _56
REMARK   28  A    between atoms: _55  and  _58
REMARK   29  A    between atoms: _58  and  _59
REMARK   30  A    between atoms: _62  and  _64
REMARK   31  A    between atoms: _64  and  _65
REMARK   32  A    between atoms: _64  and  _67
REMARK   33  A    between atoms: _67  and  _68
REMARK   34  A    between atoms: _73  and  _74
REMARK   35  A    between atoms: _76  and  _78
REMARK   36  A    between atoms: _78  and  _79
REMARK   37  A    between atoms: _81  and  _83
REMARK   38  A    between atoms: _83  and  _84
REMARK   39  A    between atoms: _83  and  _86
REMARK   40  A    between atoms: _89  and  _91
REMARK   41  A    between atoms: _91  and  _92
REMARK   42  A    between atoms: _91  and  _94
REMARK   43  A    between atoms: _97  and  _99
REMARK   44  A    between atoms: _99  and  _100
REMARK   45  A    between atoms: _99  and  _102
REMARK   46  A    between atoms: _102  and  _103
REMARK   47  A    between atoms: _108  and  _109
REMARK   48  A    between atoms: _111  and  _113
REMARK   49  A    between atoms: _113  and  _114
REMARK   50  A    between atoms: _113  and  _116
REMARK   51  A    between atoms: _116  and  _117
REMARK   52  A    between atoms: _117  and  _118
REMARK   53  A    between atoms: _118  and  _119
REMARK   54  A    between atoms: _119  and  _120
REMARK   55  A    between atoms: _124  and  _126
REMARK   56  A    between atoms: _126  and  _127
REMARK   57  A    between atoms: _130  and  _132
REMARK   58  A    between atoms: _132  and  _133
REMARK   59  A    between atoms: _132  and  _135
REMARK   60  A    between atoms: _138  and  _140
REMARK   61  A    between atoms: _140  and  _141
REMARK   62  A    between atoms: _140  and  _143
REMARK   63  A    between atoms: _146  and  _148
REMARK   64  A    between atoms: _148  and  _149
REMARK   65  A    between atoms: _152  and  _154
REMARK   66  A    between atoms: _154  and  _155
REMARK   67  A    between atoms: _154  and  _157
REMARK   68  A    between atoms: _157  and  _158
REMARK   69  A    between atoms: _161  and  _163
REMARK   70  A    between atoms: _163  and  _164
REMARK   71  A    between atoms: _163  and  _166
REMARK   72  A    between atoms: _166  and  _167
REMARK   73  A    between atoms: _167  and  _168
REMARK   74  A    between atoms: _168  and  _169
REMARK   75  A    between atoms: _169  and  _170
REMARK   76  A    between atoms: _174  and  _176
REMARK   77  A    between atoms: _176  and  _177
REMARK   78  A    between atoms: _176  and  _179
REMARK   79  A    between atoms: _179  and  _180
REMARK   80  A    between atoms: _180  and  _181
REMARK   81  A    between atoms: _181  and  _182
REMARK   82  A    between atoms: _182  and  _183
REMARK   83  A    between atoms: _187  and  _189
REMARK   84  A    between atoms: _189  and  _190
REMARK   85  A    between atoms: _189  and  _192
REMARK   86  A    between atoms: _192  and  _193
REMARK   87  A    between atoms: _193  and  _194
REMARK   88  A    between atoms: _197  and  _199
REMARK   89  A    between atoms: _199  and  _200
REMARK   90  A    between atoms: _199  and  _202
REMARK   91  A    between atoms: _202  and  _203
REMARK   92  A    between atoms: _206  and  _208
REMARK   93  A    between atoms: _208  and  _209
REMARK   94  A    between atoms: _208  and  _211
REMARK   95  A    between atoms: _211  and  _212
REMARK   96  A    between atoms: _215  and  _217
REMARK   97  A    between atoms: _217  and  _218
REMARK   98  A    between atoms: _217  and  _220
REMARK   99  A    between atoms: _223  and  _225
REMARK  100  A    between atoms: _225  and  _226
REMARK  101  A    between atoms: _225  and  _228
REMARK  102  A    between atoms: _228  and  _229
REMARK  103  A    between atoms: _229  and  _230
REMARK  104  A    between atoms: _230  and  _231
REMARK  105  A    between atoms: _231  and  _232
REMARK  106  A    between atoms: _236  and  _238
REMARK  107  A    between atoms: _238  and  _239
REMARK  108  A    between atoms: _238  and  _241
REMARK  109  A    between atoms: _241  and  _242
REMARK  110  A    between atoms: _245  and  _247
REMARK  111  A    between atoms: _247  and  _248
REMARK  112  A    between atoms: _247  and  _250
REMARK  113  A    between atoms: _250  and  _251
REMARK  114  A    between atoms: _254  and  _256
REMARK  115  A    between atoms: _256  and  _257
REMARK  116  A    between atoms: _256  and  _259
REMARK  117  A    between atoms: _259  and  _260
REMARK  118  A    between atoms: _263  and  _265
REMARK  119  A    between atoms: _265  and  _266
REMARK  120  A    between atoms: _265  and  _268
REMARK  121  A    between atoms: _271  and  _273
REMARK  122  A    between atoms: _273  and  _274
REMARK  123  A    between atoms: _273  and  _276
REMARK  124  A    between atoms: _276  and  _277
REMARK  125  A    between atoms: _283  and  _285
REMARK  126  A    between atoms: _285  and  _286
REMARK  127  A    between atoms: _285  and  _288
REMARK  128  A    between atoms: _288  and  _289
REMARK  129  A    between atoms: _289  and  _290
REMARK  130  A    between atoms: _293  and  _295
REMARK  131  A    between atoms: _295  and  _296
REMARK  132  A    between atoms: _295  and  _298
REMARK  133  A    between atoms: _298  and  _299
REMARK  134  A    between atoms: _305  and  _307
REMARK  135  A    between atoms: _307  and  _308
REMARK  136  A    between atoms: _307  and  _310
REMARK  137  A    between atoms: _310  and  _311
REMARK  138  A    between atoms: _314  and  _316
REMARK  139  A    between atoms: _316  and  _317
REMARK  140  A    between atoms: _316  and  _319
REMARK  141  A    between atoms: _319  and  _320
REMARK  142  A    between atoms: _325  and  _327
REMARK  143  A    between atoms: _327  and  _328
REMARK  144  A    between atoms: _327  and  _330
REMARK  145  A    between atoms: _330  and  _331
REMARK  146  A    between atoms: _331  and  _332
REMARK  147  A    between atoms: _337  and  _339
REMARK  148  A    between atoms: _339  and  _340
REMARK  149  A    between atoms: _339  and  _342
REMARK  150  A    between atoms: _342  and  _343
REMARK  151  A    between atoms: _346  and  _348
REMARK  152  A    between atoms: _348  and  _349
REMARK  153  A    between atoms: _348  and  _351
REMARK  154  A    between atoms: _351  and  _352
REMARK  155  A    between atoms: _355  and  _357
REMARK  156  A    between atoms: _357  and  _358
REMARK  157  A    between atoms: _357  and  _360
REMARK  158  A    between atoms: _360  and  _361
REMARK  159  A    between atoms: _361  and  _362
REMARK  160  A    between atoms: _362  and  _363
REMARK  161  A    between atoms: _363  and  _364
REMARK  162  A    between atoms: _368  and  _370
REMARK  163  A    between atoms: _370  and  _371
REMARK  164  A    between atoms: _370  and  _373
REMARK  165  A    between atoms: _373  and  _374
REMARK  166  A    between atoms: _374  and  _375
REMARK  167  A    between atoms: _375  and  _376
REMARK  168  A    between atoms: _376  and  _377
REMARK  169  A    between atoms: _381  and  _383
REMARK  170  A    between atoms: _383  and  _384
REMARK  171  A    between atoms: _383  and  _386
REMARK  172  A    between atoms: _386  and  _387
REMARK  173  A    between atoms: _394  and  _395
REMARK  174  A    between atoms: _400  and  _402
REMARK  175  A    between atoms: _402  and  _403
REMARK  176  A    between atoms: _402  and  _405
REMARK  177  A    between atoms: _405  and  _406
REMARK  178  A    between atoms: _406  and  _407
REMARK  179  A    between atoms: _412  and  _414
REMARK  180  A    between atoms: _414  and  _415
REMARK  181  A    between atoms: _414  and  _417
REMARK  182  A    between atoms: _417  and  _418
REMARK  183  A    between atoms: _423  and  _425
REMARK  184  A    between atoms: _425  and  _426
REMARK  185  A    between atoms: _425  and  _428
REMARK  186  A    between atoms: _428  and  _429
REMARK  187  A    between atoms: _432  and  _434
REMARK  188  A    between atoms: _434  and  _435
REMARK  189  A    between atoms: _434  and  _437
REMARK  190  A    between atoms: _437  and  _438
REMARK  191  A    between atoms: _441  and  _443
REMARK  192  A    between atoms: _443  and  _444
REMARK  193  A    between atoms: _443  and  _446
REMARK  194  A    between atoms: _446  and  _447
REMARK  195  A    between atoms: _450  and  _452
REMARK  196  A    between atoms: _452  and  _453
REMARK  197  A    between atoms: _452  and  _455
REMARK  198  A    between atoms: _455  and  _456
REMARK  199  A    between atoms: _456  and  _457
REMARK  200  A    between atoms: _457  and  _458
REMARK  201  A    between atoms: _458  and  _459
REMARK  202  A    between atoms: _463  and  _465
REMARK  203  A    between atoms: _465  and  _466
REMARK  204  A    between atoms: _465  and  _468
REMARK  205  A    between atoms: _468  and  _469
REMARK  206  A    between atoms: _472  and  _474
REMARK  207  A    between atoms: _474  and  _475
REMARK  208  A    between atoms: _478  and  _480
REMARK  209  A    between atoms: _480  and  _481
REMARK  210  A    between atoms: _480  and  _483
REMARK  211  A    between atoms: _483  and  _484
REMARK  212  A    between atoms: _487  and  _489
REMARK  213  A    between atoms: _489  and  _490
REMARK  214  A    between atoms: _489  and  _492
REMARK  215  A    between atoms: _492  and  _493
REMARK  216  A    between atoms: _499  and  _501
REMARK  217  A    between atoms: _501  and  _502
REMARK                            x       y       z     vdW  Elec       q    Type
REMARK                         _______ _______ _______ _____ _____    ______ ____
ROOT
ATOM      1  O   HOH     1       9.733  17.692  16.757  0.00  0.00    +0.000 OA
ENDROOT
TORSDOF 0
REMARK  Name = ../refined-set-2016/4bcm/4bcm_pocket.pdb
REMARK  217 active torsions:
REMARK  status: ('A' for Active; 'I' for Inactive)
REMARK    1  A    between atoms: _1  and  _3
REMARK    2  A    between atoms: _3  and  _4
REMARK    3  A    between atoms: _3  and  _6
REMARK    4  A    between atoms: _6  and  _7
REMARK    5  A    between atoms: _7  and  _8
REMARK    6  A    between atoms: _11  and  _13
REMARK    7  A    between atoms: _13  and  _14
REMARK    8  A    between atoms: _13  and  _16
REMARK    9  A    between atoms: _16  and  _17
REMARK   10  A    between atoms: _17  and  _18
REMARK   11  A    between atoms: _18  and  _19
REMARK   12  A    between atoms: _19  and  _20
REMARK   13  A    between atoms: _24  and  _26
REMARK   14  A    between atoms: _26  and  _27
REMARK   15  A    between atoms: _26  and  _29
REMARK   16  A    between atoms: _29  and  _30
REMARK   17  A    between atoms: _33  and  _35
REMARK   18  A    between atoms: _35  and  _36
REMARK   19  A    between atoms: _38  and  _40
REMARK   20  A    between atoms: _40  and  _41
REMARK   21  A    between atoms: _40  and  _43
REMARK   22  A    between atoms: _43  and  _44
REMARK   23  A    between atoms: _44  and  _45
REMARK   24  A    between atoms: _48  and  _50
REMARK   25  A    between atoms: _50  and  _51
REMARK   26  A    between atoms: _53  and  _55
REMARK   27  A    between atoms: _55  and  _56
REMARK   28  A    between atoms: _55  and  _58
REMARK   29  A    between atoms: _58  and  _59
REMARK   30  A    between atoms: _62  and  _64
REMARK   31  A    between atoms: _64  and  _65
REMARK   32  A    between atoms: _64  and  _67
REMARK   33  A    between atoms: _67  and  _68
REMARK   34  A    between atoms: _73  and  _74
REMARK   35  A    between atoms: _76  and  _78
REMARK   36  A    between atoms: _78  and  _79
REMARK   37  A    between atoms: _81  and  _83
REMARK   38  A    between atoms: _83  and  _84
REMARK   39  A    between atoms: _83  and  _86
REMARK   40  A    between atoms: _89  and  _91
REMARK   41  A    between atoms: _91  and  _92
REMARK   42  A    between atoms: _91  and  _94
REMARK   43  A    between atoms: _97  and  _99
REMARK   44  A    between atoms: _99  and  _100
REMARK   45  A    between atoms: _99  and  _102
REMARK   46  A    between atoms: _102  and  _103
REMARK   47  A    between atoms: _108  and  _109
REMARK   48  A    between atoms: _111  and  _113
REMARK   49  A    between atoms: _113  and  _114
REMARK   50  A    between atoms: _113  and  _116
REMARK   51  A    between atoms: _116  and  _117
REMARK   52  A    between atoms: _117  and  _118
REMARK   53  A    between atoms: _118  and  _119
REMARK   54  A    between atoms: _119  and  _120
REMARK   55  A    between atoms: _124  and  _126
REMARK   56  A    between atoms: _126  and  _127
REMARK   57  A    between atoms: _130  and  _132
REMARK   58  A    between atoms: _132  and  _133
REMARK   59  A    between atoms: _132  and  _135
REMARK   60  A    between atoms: _138  and  _140
REMARK   61  A    between atoms: _140  and  _141
REMARK   62  A    between atoms: _140  and  _143
REMARK   63  A    between atoms: _146  and  _148
REMARK   64  A    between atoms: _148  and  _149
REMARK   65  A    between atoms: _152  and  _154
REMARK   66  A    between atoms: _154  and  _155
REMARK   67  A    between atoms: _154  and  _157
REMARK   68  A    between atoms: _157  and  _158
REMARK   69  A    between atoms: _161  and  _163
REMARK   70  A    between atoms: _163  and  _164
REMARK   71  A    between atoms: _163  and  _166
REMARK   72  A    between atoms: _166  and  _167
REMARK   73  A    between atoms: _167  and  _168
REMARK   74  A    between atoms: _168  and  _169
REMARK   75  A    between atoms: _169  and  _170
REMARK   76  A    between atoms: _174  and  _176
REMARK   77  A    between atoms: _176  and  _177
REMARK   78  A    between atoms: _176  and  _179
REMARK   79  A    between atoms: _179  and  _180
REMARK   80  A    between atoms: _180  and  _181
REMARK   81  A    between atoms: _181  and  _182
REMARK   82  A    between atoms: _182  and  _183
REMARK   83  A    between atoms: _187  and  _189
REMARK   84  A    between atoms: _189  and  _190
REMARK   85  A    between atoms: _189  and  _192
REMARK   86  A    between atoms: _192  and  _193
REMARK   87  A    between atoms: _193  and  _194
REMARK   88  A    between atoms: _197  and  _199
REMARK   89  A    between atoms: _199  and  _200
REMARK   90  A    between atoms: _199  and  _202
REMARK   91  A    between atoms: _202  and  _203
REMARK   92  A    between atoms: _206  and  _208
REMARK   93  A    between atoms: _208  and  _209
REMARK   94  A    between atoms: _208  and  _211
REMARK   95  A    between atoms: _211  and  _212
REMARK   96  A    between atoms: _215  and  _217
REMARK   97  A    between atoms: _217  and  _218
REMARK   98  A    between atoms: _217  and  _220
REMARK   99  A    between atoms: _223  and  _225
REMARK  100  A    between atoms: _225  and  _226
REMARK  101  A    between atoms: _225  and  _228
REMARK  102  A    between atoms: _228  and  _229
REMARK  103  A    between atoms: _229  and  _230
REMARK  104  A    between atoms: _230  and  _231
REMARK  105  A    between atoms: _231  and  _232
REMARK  106  A    between atoms: _236  and  _238
REMARK  107  A    between atoms: _238  and  _239
REMARK  108  A    between atoms: _238  and  _241
REMARK  109  A    between atoms: _241  and  _242
REMARK  110  A    between atoms: _245  and  _247
REMARK  111  A    between atoms: _247  and  _248
REMARK  112  A    between atoms: _247  and  _250
REMARK  113  A    between atoms: _250  and  _251
REMARK  114  A    between atoms: _254  and  _256
REMARK  115  A    between atoms: _256  and  _257
REMARK  116  A    between atoms: _256  and  _259
REMARK  117  A    between atoms: _259  and  _260
REMARK  118  A    between atoms: _263  and  _265
REMARK  119  A    between atoms: _265  and  _266
REMARK  120  A    between atoms: _265  and  _268
REMARK  121  A    between atoms: _271  and  _273
REMARK  122  A    between atoms: _273  and  _274
REMARK  123  A    between atoms: _273  and  _276
REMARK  124  A    between atoms: _276  and  _277
REMARK  125  A    between atoms: _283  and  _285
REMARK  126  A    between atoms: _285  and  _286
REMARK  127  A    between atoms: _285  and  _288
REMARK  128  A    between atoms: _288  and  _289
REMARK  129  A    between atoms: _289  and  _290
REMARK  130  A    between atoms: _293  and  _295
REMARK  131  A    between atoms: _295  and  _296
REMARK  132  A    between atoms: _295  and  _298
REMARK  133  A    between atoms: _298  and  _299
REMARK  134  A    between atoms: _305  and  _307
REMARK  135  A    between atoms: _307  and  _308
REMARK  136  A    between atoms: _307  and  _310
REMARK  137  A    between atoms: _310  and  _311
REMARK  138  A    between atoms: _314  and  _316
REMARK  139  A    between atoms: _316  and  _317
REMARK  140  A    between atoms: _316  and  _319
REMARK  141  A    between atoms: _319  and  _320
REMARK  142  A    between atoms: _325  and  _327
REMARK  143  A    between atoms: _327  and  _328
REMARK  144  A    between atoms: _327  and  _330
REMARK  145  A    between atoms: _330  and  _331
REMARK  146  A    between atoms: _331  and  _332
REMARK  147  A    between atoms: _337  and  _339
REMARK  148  A    between atoms: _339  and  _340
REMARK  149  A    between atoms: _339  and  _342
REMARK  150  A    between atoms: _342  and  _343
REMARK  151  A    between atoms: _346  and  _348
REMARK  152  A    between atoms: _348  and  _349
REMARK  153  A    between atoms: _348  and  _351
REMARK  154  A    between atoms: _351  and  _352
REMARK  155  A    between atoms: _355  and  _357
REMARK  156  A    between atoms: _357  and  _358
REMARK  157  A    between atoms: _357  and  _360
REMARK  158  A    between atoms: _360  and  _361
REMARK  159  A    between atoms: _361  and  _362
REMARK  160  A    between atoms: _362  and  _363
REMARK  161  A    between atoms: _363  and  _364
REMARK  162  A    between atoms: _368  and  _370
REMARK  163  A    between atoms: _370  and  _371
REMARK  164  A    between atoms: _370  and  _373
REMARK  165  A    between atoms: _373  and  _374
REMARK  166  A    between atoms: _374  and  _375
REMARK  167  A    between atoms: _375  and  _376
REMARK  168  A    between atoms: _376  and  _377
REMARK  169  A    between atoms: _381  and  _383
REMARK  170  A    between atoms: _383  and  _384
REMARK  171  A    between atoms: _383  and  _386
REMARK  172  A    between atoms: _386  and  _387
REMARK  173  A    between atoms: _394  and  _395
REMARK  174  A    between atoms: _400  and  _402
REMARK  175  A    between atoms: _402  and  _403
REMARK  176  A    between atoms: _402  and  _405
REMARK  177  A    between atoms: _405  and  _406
REMARK  178  A    between atoms: _406  and  _407
REMARK  179  A    between atoms: _412  and  _414
REMARK  180  A    between atoms: _414  and  _415
REMARK  181  A    between atoms: _414  and  _417
REMARK  182  A    between atoms: _417  and  _418
REMARK  183  A    between atoms: _423  and  _425
REMARK  184  A    between atoms: _425  and  _426
REMARK  185  A    between atoms: _425  and  _428
REMARK  186  A    between atoms: _428  and  _429
REMARK  187  A    between atoms: _432  and  _434
REMARK  188  A    between atoms: _434  and  _435
REMARK  189  A    between atoms: _434  and  _437
REMARK  190  A    between atoms: _437  and  _438
REMARK  191  A    between atoms: _441  and  _443
REMARK  192  A    between atoms: _443  and  _444
REMARK  193  A    between atoms: _443  and  _446
REMARK  194  A    between atoms: _446  and  _447
REMARK  195  A    between atoms: _450  and  _452
REMARK  196  A    between atoms: _452  and  _453
REMARK  197  A    between atoms: _452  and  _455
REMARK  198  A    between atoms: _455  and  _456
REMARK  199  A    between atoms: _456  and  _457
REMARK  200  A    between atoms: _457  and  _458
REMARK  201  A    between atoms: _458  and  _459
REMARK  202  A    between atoms: _463  and  _465
REMARK  203  A    between atoms: _465  and  _466
REMARK  204  A    between atoms: _465  and  _468
REMARK  205  A    between atoms: _468  and  _469
REMARK  206  A    between atoms: _472  and  _474
REMARK  207  A    between atoms: _474  and  _475
REMARK  208  A    between atoms: _478  and  _480
REMARK  209  A    between atoms: _480  and  _481
REMARK  210  A    between atoms: _480  and  _483
REMARK  211  A    between atoms: _483  and  _484
REMARK  212  A    between atoms: _487  and  _489
REMARK  213  A    between atoms: _489  and  _490
REMARK  214  A    between atoms: _489  and  _492
REMARK  215  A    between atoms: _492  and  _493
REMARK  216  A    between atoms: _499  and  _501
REMARK  217  A    between atoms: _501  and  _502
REMARK                            x       y       z     vdW  Elec       q    Type
REMARK                         _______ _______ _______ _____ _____    ______ ____
ROOT
ATOM      1  O   HOH     1      15.276  26.073  29.191  0.00  0.00    +0.000 OA
ENDROOT
TORSDOF 0
REMARK  Name = ../refined-set-2016/4bcm/4bcm_pocket.pdb
REMARK  217 active torsions:
REMARK  status: ('A' for Active; 'I' for Inactive)
REMARK    1  A    between atoms: _1  and  _3
REMARK    2  A    between atoms: _3  and  _4
REMARK    3  A    between atoms: _3  and  _6
REMARK    4  A    between atoms: _6  and  _7
REMARK    5  A    between atoms: _7  and  _8
REMARK    6  A    between atoms: _11  and  _13
REMARK    7  A    between atoms: _13  and  _14
REMARK    8  A    between atoms: _13  and  _16
REMARK    9  A    between atoms: _16  and  _17
REMARK   10  A    between atoms: _17  and  _18
REMARK   11  A    between atoms: _18  and  _19
REMARK   12  A    between atoms: _19  and  _20
REMARK   13  A    between atoms: _24  and  _26
REMARK   14  A    between atoms: _26  and  _27
REMARK   15  A    between atoms: _26  and  _29
REMARK   16  A    between atoms: _29  and  _30
REMARK   17  A    between atoms: _33  and  _35
REMARK   18  A    between atoms: _35  and  _36
REMARK   19  A    between atoms: _38  and  _40
REMARK   20  A    between atoms: _40  and  _41
REMARK   21  A    between atoms: _40  and  _43
REMARK   22  A    between atoms: _43  and  _44
REMARK   23  A    between atoms: _44  and  _45
REMARK   24  A    between atoms: _48  and  _50
REMARK   25  A    between atoms: _50  and  _51
REMARK   26  A    between atoms: _53  and  _55
REMARK   27  A    between atoms: _55  and  _56
REMARK   28  A    between atoms: _55  and  _58
REMARK   29  A    between atoms: _58  and  _59
REMARK   30  A    between atoms: _62  and  _64
REMARK   31  A    between atoms: _64  and  _65
REMARK   32  A    between atoms: _64  and  _67
REMARK   33  A    between atoms: _67  and  _68
REMARK   34  A    between atoms: _73  and  _74
REMARK   35  A    between atoms: _76  and  _78
REMARK   36  A    between atoms: _78  and  _79
REMARK   37  A    between atoms: _81  and  _83
REMARK   38  A    between atoms: _83  and  _84
REMARK   39  A    between atoms: _83  and  _86
REMARK   40  A    between atoms: _89  and  _91
REMARK   41  A    between atoms: _91  and  _92
REMARK   42  A    between atoms: _91  and  _94
REMARK   43  A    between atoms: _97  and  _99
REMARK   44  A    between atoms: _99  and  _100
REMARK   45  A    between atoms: _99  and  _102
REMARK   46  A    between atoms: _102  and  _103
REMARK   47  A    between atoms: _108  and  _109
REMARK   48  A    between atoms: _111  and  _113
REMARK   49  A    between atoms: _113  and  _114
REMARK   50  A    between atoms: _113  and  _116
REMARK   51  A    between atoms: _116  and  _117
REMARK   52  A    between atoms: _117  and  _118
REMARK   53  A    between atoms: _118  and  _119
REMARK   54  A    between atoms: _119  and  _120
REMARK   55  A    between atoms: _124  and  _126
REMARK   56  A    between atoms: _126  and  _127
REMARK   57  A    between atoms: _130  and  _132
REMARK   58  A    between atoms: _132  and  _133
REMARK   59  A    between atoms: _132  and  _135
REMARK   60  A    between atoms: _138  and  _140
REMARK   61  A    between atoms: _140  and  _141
REMARK   62  A    between atoms: _140  and  _143
REMARK   63  A    between atoms: _146  and  _148
REMARK   64  A    between atoms: _148  and  _149
REMARK   65  A    between atoms: _152  and  _154
REMARK   66  A    between atoms: _154  and  _155
REMARK   67  A    between atoms: _154  and  _157
REMARK   68  A    between atoms: _157  and  _158
REMARK   69  A    between atoms: _161  and  _163
REMARK   70  A    between atoms: _163  and  _164
REMARK   71  A    between atoms: _163  and  _166
REMARK   72  A    between atoms: _166  and  _167
REMARK   73  A    between atoms: _167  and  _168
REMARK   74  A    between atoms: _168  and  _169
REMARK   75  A    between atoms: _169  and  _170
REMARK   76  A    between atoms: _174  and  _176
REMARK   77  A    between atoms: _176  and  _177
REMARK   78  A    between atoms: _176  and  _179
REMARK   79  A    between atoms: _179  and  _180
REMARK   80  A    between atoms: _180  and  _181
REMARK   81  A    between atoms: _181  and  _182
REMARK   82  A    between atoms: _182  and  _183
REMARK   83  A    between atoms: _187  and  _189
REMARK   84  A    between atoms: _189  and  _190
REMARK   85  A    between atoms: _189  and  _192
REMARK   86  A    between atoms: _192  and  _193
REMARK   87  A    between atoms: _193  and  _194
REMARK   88  A    between atoms: _197  and  _199
REMARK   89  A    between atoms: _199  and  _200
REMARK   90  A    between atoms: _199  and  _202
REMARK   91  A    between atoms: _202  and  _203
REMARK   92  A    between atoms: _206  and  _208
REMARK   93  A    between atoms: _208  and  _209
REMARK   94  A    between atoms: _208  and  _211
REMARK   95  A    between atoms: _211  and  _212
REMARK   96  A    between atoms: _215  and  _217
REMARK   97  A    between atoms: _217  and  _218
REMARK   98  A    between atoms: _217  and  _220
REMARK   99  A    between atoms: _223  and  _225
REMARK  100  A    between atoms: _225  and  _226
REMARK  101  A    between atoms: _225  and  _228
REMARK  102  A    between atoms: _228  and  _229
REMARK  103  A    between atoms: _229  and  _230
REMARK  104  A    between atoms: _230  and  _231
REMARK  105  A    between atoms: _231  and  _232
REMARK  106  A    between atoms: _236  and  _238
REMARK  107  A    between atoms: _238  and  _239
REMARK  108  A    between atoms: _238  and  _241
REMARK  109  A    between atoms: _241  and  _242
REMARK  110  A    between atoms: _245  and  _247
REMARK  111  A    between atoms: _247  and  _248
REMARK  112  A    between atoms: _247  and  _250
REMARK  113  A    between atoms: _250  and  _251
REMARK  114  A    between atoms: _254  and  _256
REMARK  115  A    between atoms: _256  and  _257
REMARK  116  A    between atoms: _256  and  _259
REMARK  117  A    between atoms: _259  and  _260
REMARK  118  A    between atoms: _263  and  _265
REMARK  119  A    between atoms: _265  and  _266
REMARK  120  A    between atoms: _265  and  _268
REMARK  121  A    between atoms: _271  and  _273
REMARK  122  A    between atoms: _273  and  _274
REMARK  123  A    between atoms: _273  and  _276
REMARK  124  A    between atoms: _276  and  _277
REMARK  125  A    between atoms: _283  and  _285
REMARK  126  A    between atoms: _285  and  _286
REMARK  127  A    between atoms: _285  and  _288
REMARK  128  A    between atoms: _288  and  _289
REMARK  129  A    between atoms: _289  and  _290
REMARK  130  A    between atoms: _293  and  _295
REMARK  131  A    between atoms: _295  and  _296
REMARK  132  A    between atoms: _295  and  _298
REMARK  133  A    between atoms: _298  and  _299
REMARK  134  A    between atoms: _305  and  _307
REMARK  135  A    between atoms: _307  and  _308
REMARK  136  A    between atoms: _307  and  _310
REMARK  137  A    between atoms: _310  and  _311
REMARK  138  A    between atoms: _314  and  _316
REMARK  139  A    between atoms: _316  and  _317
REMARK  140  A    between atoms: _316  and  _319
REMARK  141  A    between atoms: _319  and  _320
REMARK  142  A    between atoms: _325  and  _327
REMARK  143  A    between atoms: _327  and  _328
REMARK  144  A    between atoms: _327  and  _330
REMARK  145  A    between atoms: _330  and  _331
REMARK  146  A    between atoms: _331  and  _332
REMARK  147  A    between atoms: _337  and  _339
REMARK  148  A    between atoms: _339  and  _340
REMARK  149  A    between atoms: _339  and  _342
REMARK  150  A    between atoms: _342  and  _343
REMARK  151  A    between atoms: _346  and  _348
REMARK  152  A    between atoms: _348  and  _349
REMARK  153  A    between atoms: _348  and  _351
REMARK  154  A    between atoms: _351  and  _352
REMARK  155  A    between atoms: _355  and  _357
REMARK  156  A    between atoms: _357  and  _358
REMARK  157  A    between atoms: _357  and  _360
REMARK  158  A    between atoms: _360  and  _361
REMARK  159  A    between atoms: _361  and  _362
REMARK  160  A    between atoms: _362  and  _363
REMARK  161  A    between atoms: _363  and  _364
REMARK  162  A    between atoms: _368  and  _370
REMARK  163  A    between atoms: _370  and  _371
REMARK  164  A    between atoms: _370  and  _373
REMARK  165  A    between atoms: _373  and  _374
REMARK  166  A    between atoms: _374  and  _375
REMARK  167  A    between atoms: _375  and  _376
REMARK  168  A    between atoms: _376  and  _377
REMARK  169  A    between atoms: _381  and  _383
REMARK  170  A    between atoms: _383  and  _384
REMARK  171  A    between atoms: _383  and  _386
REMARK  172  A    between atoms: _386  and  _387
REMARK  173  A    between atoms: _394  and  _395
REMARK  174  A    between atoms: _400  and  _402
REMARK  175  A    between atoms: _402  and  _403
REMARK  176  A    between atoms: _402  and  _405
REMARK  177  A    between atoms: _405  and  _406
REMARK  178  A    between atoms: _406  and  _407
REMARK  179  A    between atoms: _412  and  _414
REMARK  180  A    between atoms: _414  and  _415
REMARK  181  A    between atoms: _414  and  _417
REMARK  182  A    between atoms: _417  and  _418
REMARK  183  A    between atoms: _423  and  _425
REMARK  184  A    between atoms: _425  and  _426
REMARK  185  A    between atoms: _425  and  _428
REMARK  186  A    between atoms: _428  and  _429
REMARK  187  A    between atoms: _432  and  _434
REMARK  188  A    between atoms: _434  and  _435
REMARK  189  A    between atoms: _434  and  _437
REMARK  190  A    between atoms: _437  and  _438
REMARK  191  A    between atoms: _441  and  _443
REMARK  192  A    between atoms: _443  and  _444
REMARK  193  A    between atoms: _443  and  _446
REMARK  194  A    between atoms: _446  and  _447
REMARK  195  A    between atoms: _450  and  _452
REMARK  196  A    between atoms: _452  and  _453
REMARK  197  A    between atoms: _452  and  _455
REMARK  198  A    between atoms: _455  and  _456
REMARK  199  A    between atoms: _456  and  _457
REMARK  200  A    between atoms: _457  and  _458
REMARK  201  A    between atoms: _458  and  _459
REMARK  202  A    between atoms: _463  and  _465
REMARK  203  A    between atoms: _465  and  _466
REMARK  204  A    between atoms: _465  and  _468
REMARK  205  A    between atoms: _468  and  _469
REMARK  206  A    between atoms: _472  and  _474
REMARK  207  A    between atoms: _474  and  _475
REMARK  208  A    between atoms: _478  and  _480
REMARK  209  A    between atoms: _480  and  _481
REMARK  210  A    between atoms: _480  and  _483
REMARK  211  A    between atoms: _483  and  _484
REMARK  212  A    between atoms: _487  and  _489
REMARK  213  A    between atoms: _489  and  _490
REMARK  214  A    between atoms: _489  and  _492
REMARK  215  A    between atoms: _492  and  _493
REMARK  216  A    between atoms: _499  and  _501
REMARK  217  A    between atoms: _501  and  _502
REMARK                            x       y       z     vdW  Elec       q    Type
REMARK                         _______ _______ _______ _____ _____    ______ ____
ROOT
ATOM      1  O   HOH     1       6.199  28.581  30.084  0.00  0.00    +0.000 OA
ENDROOT
TORSDOF 0
REMARK  Name = ../refined-set-2016/4bcm/4bcm_pocket.pdb
REMARK  217 active torsions:
REMARK  status: ('A' for Active; 'I' for Inactive)
REMARK    1  A    between atoms: _1  and  _3
REMARK    2  A    between atoms: _3  and  _4
REMARK    3  A    between atoms: _3  and  _6
REMARK    4  A    between atoms: _6  and  _7
REMARK    5  A    between atoms: _7  and  _8
REMARK    6  A    between atoms: _11  and  _13
REMARK    7  A    between atoms: _13  and  _14
REMARK    8  A    between atoms: _13  and  _16
REMARK    9  A    between atoms: _16  and  _17
REMARK   10  A    between atoms: _17  and  _18
REMARK   11  A    between atoms: _18  and  _19
REMARK   12  A    between atoms: _19  and  _20
REMARK   13  A    between atoms: _24  and  _26
REMARK   14  A    between atoms: _26  and  _27
REMARK   15  A    between atoms: _26  and  _29
REMARK   16  A    between atoms: _29  and  _30
REMARK   17  A    between atoms: _33  and  _35
REMARK   18  A    between atoms: _35  and  _36
REMARK   19  A    between atoms: _38  and  _40
REMARK   20  A    between atoms: _40  and  _41
REMARK   21  A    between atoms: _40  and  _43
REMARK   22  A    between atoms: _43  and  _44
REMARK   23  A    between atoms: _44  and  _45
REMARK   24  A    between atoms: _48  and  _50
REMARK   25  A    between atoms: _50  and  _51
REMARK   26  A    between atoms: _53  and  _55
REMARK   27  A    between atoms: _55  and  _56
REMARK   28  A    between atoms: _55  and  _58
REMARK   29  A    between atoms: _58  and  _59
REMARK   30  A    between atoms: _62  and  _64
REMARK   31  A    between atoms: _64  and  _65
REMARK   32  A    between atoms: _64  and  _67
REMARK   33  A    between atoms: _67  and  _68
REMARK   34  A    between atoms: _73  and  _74
REMARK   35  A    between atoms: _76  and  _78
REMARK   36  A    between atoms: _78  and  _79
REMARK   37  A    between atoms: _81  and  _83
REMARK   38  A    between atoms: _83  and  _84
REMARK   39  A    between atoms: _83  and  _86
REMARK   40  A    between atoms: _89  and  _91
REMARK   41  A    between atoms: _91  and  _92
REMARK   42  A    between atoms: _91  and  _94
REMARK   43  A    between atoms: _97  and  _99
REMARK   44  A    between atoms: _99  and  _100
REMARK   45  A    between atoms: _99  and  _102
REMARK   46  A    between atoms: _102  and  _103
REMARK   47  A    between atoms: _108  and  _109
REMARK   48  A    between atoms: _111  and  _113
REMARK   49  A    between atoms: _113  and  _114
REMARK   50  A    between atoms: _113  and  _116
REMARK   51  A    between atoms: _116  and  _117
REMARK   52  A    between atoms: _117  and  _118
REMARK   53  A    between atoms: _118  and  _119
REMARK   54  A    between atoms: _119  and  _120
REMARK   55  A    between atoms: _124  and  _126
REMARK   56  A    between atoms: _126  and  _127
REMARK   57  A    between atoms: _130  and  _132
REMARK   58  A    between atoms: _132  and  _133
REMARK   59  A    between atoms: _132  and  _135
REMARK   60  A    between atoms: _138  and  _140
REMARK   61  A    between atoms: _140  and  _141
REMARK   62  A    between atoms: _140  and  _143
REMARK   63  A    between atoms: _146  and  _148
REMARK   64  A    between atoms: _148  and  _149
REMARK   65  A    between atoms: _152  and  _154
REMARK   66  A    between atoms: _154  and  _155
REMARK   67  A    between atoms: _154  and  _157
REMARK   68  A    between atoms: _157  and  _158
REMARK   69  A    between atoms: _161  and  _163
REMARK   70  A    between atoms: _163  and  _164
REMARK   71  A    between atoms: _163  and  _166
REMARK   72  A    between atoms: _166  and  _167
REMARK   73  A    between atoms: _167  and  _168
REMARK   74  A    between atoms: _168  and  _169
REMARK   75  A    between atoms: _169  and  _170
REMARK   76  A    between atoms: _174  and  _176
REMARK   77  A    between atoms: _176  and  _177
REMARK   78  A    between atoms: _176  and  _179
REMARK   79  A    between atoms: _179  and  _180
REMARK   80  A    between atoms: _180  and  _181
REMARK   81  A    between atoms: _181  and  _182
REMARK   82  A    between atoms: _182  and  _183
REMARK   83  A    between atoms: _187  and  _189
REMARK   84  A    between atoms: _189  and  _190
REMARK   85  A    between atoms: _189  and  _192
REMARK   86  A    between atoms: _192  and  _193
REMARK   87  A    between atoms: _193  and  _194
REMARK   88  A    between atoms: _197  and  _199
REMARK   89  A    between atoms: _199  and  _200
REMARK   90  A    between atoms: _199  and  _202
REMARK   91  A    between atoms: _202  and  _203
REMARK   92  A    between atoms: _206  and  _208
REMARK   93  A    between atoms: _208  and  _209
REMARK   94  A    between atoms: _208  and  _211
REMARK   95  A    between atoms: _211  and  _212
REMARK   96  A    between atoms: _215  and  _217
REMARK   97  A    between atoms: _217  and  _218
REMARK   98  A    between atoms: _217  and  _220
REMARK   99  A    between atoms: _223  and  _225
REMARK  100  A    between atoms: _225  and  _226
REMARK  101  A    between atoms: _225  and  _228
REMARK  102  A    between atoms: _228  and  _229
REMARK  103  A    between atoms: _229  and  _230
REMARK  104  A    between atoms: _230  and  _231
REMARK  105  A    between atoms: _231  and  _232
REMARK  106  A    between atoms: _236  and  _238
REMARK  107  A    between atoms: _238  and  _239
REMARK  108  A    between atoms: _238  and  _241
REMARK  109  A    between atoms: _241  and  _242
REMARK  110  A    between atoms: _245  and  _247
REMARK  111  A    between atoms: _247  and  _248
REMARK  112  A    between atoms: _247  and  _250
REMARK  113  A    between atoms: _250  and  _251
REMARK  114  A    between atoms: _254  and  _256
REMARK  115  A    between atoms: _256  and  _257
REMARK  116  A    between atoms: _256  and  _259
REMARK  117  A    between atoms: _259  and  _260
REMARK  118  A    between atoms: _263  and  _265
REMARK  119  A    between atoms: _265  and  _266
REMARK  120  A    between atoms: _265  and  _268
REMARK  121  A    between atoms: _271  and  _273
REMARK  122  A    between atoms: _273  and  _274
REMARK  123  A    between atoms: _273  and  _276
REMARK  124  A    between atoms: _276  and  _277
REMARK  125  A    between atoms: _283  and  _285
REMARK  126  A    between atoms: _285  and  _286
REMARK  127  A    between atoms: _285  and  _288
REMARK  128  A    between atoms: _288  and  _289
REMARK  129  A    between atoms: _289  and  _290
REMARK  130  A    between atoms: _293  and  _295
REMARK  131  A    between atoms: _295  and  _296
REMARK  132  A    between atoms: _295  and  _298
REMARK  133  A    between atoms: _298  and  _299
REMARK  134  A    between atoms: _305  and  _307
REMARK  135  A    between atoms: _307  and  _308
REMARK  136  A    between atoms: _307  and  _310
REMARK  137  A    between atoms: _310  and  _311
REMARK  138  A    between atoms: _314  and  _316
REMARK  139  A    between atoms: _316  and  _317
REMARK  140  A    between atoms: _316  and  _319
REMARK  141  A    between atoms: _319  and  _320
REMARK  142  A    between atoms: _325  and  _327
REMARK  143  A    between atoms: _327  and  _328
REMARK  144  A    between atoms: _327  and  _330
REMARK  145  A    between atoms: _330  and  _331
REMARK  146  A    between atoms: _331  and  _332
REMARK  147  A    between atoms: _337  and  _339
REMARK  148  A    between atoms: _339  and  _340
REMARK  149  A    between atoms: _339  and  _342
REMARK  150  A    between atoms: _342  and  _343
REMARK  151  A    between atoms: _346  and  _348
REMARK  152  A    between atoms: _348  and  _349
REMARK  153  A    between atoms: _348  and  _351
REMARK  154  A    between atoms: _351  and  _352
REMARK  155  A    between atoms: _355  and  _357
REMARK  156  A    between atoms: _357  and  _358
REMARK  157  A    between atoms: _357  and  _360
REMARK  158  A    between atoms: _360  and  _361
REMARK  159  A    between atoms: _361  and  _362
REMARK  160  A    between atoms: _362  and  _363
REMARK  161  A    between atoms: _363  and  _364
REMARK  162  A    between atoms: _368  and  _370
REMARK  163  A    between atoms: _370  and  _371
REMARK  164  A    between atoms: _370  and  _373
REMARK  165  A    between atoms: _373  and  _374
REMARK  166  A    between atoms: _374  and  _375
REMARK  167  A    between atoms: _375  and  _376
REMARK  168  A    between atoms: _376  and  _377
REMARK  169  A    between atoms: _381  and  _383
REMARK  170  A    between atoms: _383  and  _384
REMARK  171  A    between atoms: _383  and  _386
REMARK  172  A    between atoms: _386  and  _387
REMARK  173  A    between atoms: _394  and  _395
REMARK  174  A    between atoms: _400  and  _402
REMARK  175  A    between atoms: _402  and  _403
REMARK  176  A    between atoms: _402  and  _405
REMARK  177  A    between atoms: _405  and  _406
REMARK  178  A    between atoms: _406  and  _407
REMARK  179  A    between atoms: _412  and  _414
REMARK  180  A    between atoms: _414  and  _415
REMARK  181  A    between atoms: _414  and  _417
REMARK  182  A    between atoms: _417  and  _418
REMARK  183  A    between atoms: _423  and  _425
REMARK  184  A    between atoms: _425  and  _426
REMARK  185  A    between atoms: _425  and  _428
REMARK  186  A    between atoms: _428  and  _429
REMARK  187  A    between atoms: _432  and  _434
REMARK  188  A    between atoms: _434  and  _435
REMARK  189  A    between atoms: _434  and  _437
REMARK  190  A    between atoms: _437  and  _438
REMARK  191  A    between atoms: _441  and  _443
REMARK  192  A    between atoms: _443  and  _444
REMARK  193  A    between atoms: _443  and  _446
REMARK  194  A    between atoms: _446  and  _447
REMARK  195  A    between atoms: _450  and  _452
REMARK  196  A    between atoms: _452  and  _453
REMARK  197  A    between atoms: _452  and  _455
REMARK  198  A    between atoms: _455  and  _456
REMARK  199  A    between atoms: _456  and  _457
REMARK  200  A    between atoms: _457  and  _458
REMARK  201  A    between atoms: _458  and  _459
REMARK  202  A    between atoms: _463  and  _465
REMARK  203  A    between atoms: _465  and  _466
REMARK  204  A    between atoms: _465  and  _468
REMARK  205  A    between atoms: _468  and  _469
REMARK  206  A    between atoms: _472  and  _474
REMARK  207  A    between atoms: _474  and  _475
REMARK  208  A    between atoms: _478  and  _480
REMARK  209  A    between atoms: _480  and  _481
REMARK  210  A    between atoms: _480  and  _483
REMARK  211  A    between atoms: _483  and  _484
REMARK  212  A    between atoms: _487  and  _489
REMARK  213  A    between atoms: _489  and  _490
REMARK  214  A    between atoms: _489  and  _492
REMARK  215  A    between atoms: _492  and  _493
REMARK  216  A    between atoms: _499  and  _501
REMARK  217  A    between atoms: _501  and  _502
REMARK                            x       y       z     vdW  Elec       q    Type
REMARK                         _______ _______ _______ _____ _____    ______ ____
ROOT
ATOM      1  O   HOH     1      -1.056  27.641  20.599  0.00  0.00    +0.000 OA
ENDROOT
TORSDOF 0
REMARK  Name = ../refined-set-2016/4bcm/4bcm_pocket.pdb
REMARK  217 active torsions:
REMARK  status: ('A' for Active; 'I' for Inactive)
REMARK    1  A    between atoms: _1  and  _3
REMARK    2  A    between atoms: _3  and  _4
REMARK    3  A    between atoms: _3  and  _6
REMARK    4  A    between atoms: _6  and  _7
REMARK    5  A    between atoms: _7  and  _8
REMARK    6  A    between atoms: _11  and  _13
REMARK    7  A    between atoms: _13  and  _14
REMARK    8  A    between atoms: _13  and  _16
REMARK    9  A    between atoms: _16  and  _17
REMARK   10  A    between atoms: _17  and  _18
REMARK   11  A    between atoms: _18  and  _19
REMARK   12  A    between atoms: _19  and  _20
REMARK   13  A    between atoms: _24  and  _26
REMARK   14  A    between atoms: _26  and  _27
REMARK   15  A    between atoms: _26  and  _29
REMARK   16  A    between atoms: _29  and  _30
REMARK   17  A    between atoms: _33  and  _35
REMARK   18  A    between atoms: _35  and  _36
REMARK   19  A    between atoms: _38  and  _40
REMARK   20  A    between atoms: _40  and  _41
REMARK   21  A    between atoms: _40  and  _43
REMARK   22  A    between atoms: _43  and  _44
REMARK   23  A    between atoms: _44  and  _45
REMARK   24  A    between atoms: _48  and  _50
REMARK   25  A    between atoms: _50  and  _51
REMARK   26  A    between atoms: _53  and  _55
REMARK   27  A    between atoms: _55  and  _56
REMARK   28  A    between atoms: _55  and  _58
REMARK   29  A    between atoms: _58  and  _59
REMARK   30  A    between atoms: _62  and  _64
REMARK   31  A    between atoms: _64  and  _65
REMARK   32  A    between atoms: _64  and  _67
REMARK   33  A    between atoms: _67  and  _68
REMARK   34  A    between atoms: _73  and  _74
REMARK   35  A    between atoms: _76  and  _78
REMARK   36  A    between atoms: _78  and  _79
REMARK   37  A    between atoms: _81  and  _83
REMARK   38  A    between atoms: _83  and  _84
REMARK   39  A    between atoms: _83  and  _86
REMARK   40  A    between atoms: _89  and  _91
REMARK   41  A    between atoms: _91  and  _92
REMARK   42  A    between atoms: _91  and  _94
REMARK   43  A    between atoms: _97  and  _99
REMARK   44  A    between atoms: _99  and  _100
REMARK   45  A    between atoms: _99  and  _102
REMARK   46  A    between atoms: _102  and  _103
REMARK   47  A    between atoms: _108  and  _109
REMARK   48  A    between atoms: _111  and  _113
REMARK   49  A    between atoms: _113  and  _114
REMARK   50  A    between atoms: _113  and  _116
REMARK   51  A    between atoms: _116  and  _117
REMARK   52  A    between atoms: _117  and  _118
REMARK   53  A    between atoms: _118  and  _119
REMARK   54  A    between atoms: _119  and  _120
REMARK   55  A    between atoms: _124  and  _126
REMARK   56  A    between atoms: _126  and  _127
REMARK   57  A    between atoms: _130  and  _132
REMARK   58  A    between atoms: _132  and  _133
REMARK   59  A    between atoms: _132  and  _135
REMARK   60  A    between atoms: _138  and  _140
REMARK   61  A    between atoms: _140  and  _141
REMARK   62  A    between atoms: _140  and  _143
REMARK   63  A    between atoms: _146  and  _148
REMARK   64  A    between atoms: _148  and  _149
REMARK   65  A    between atoms: _152  and  _154
REMARK   66  A    between atoms: _154  and  _155
REMARK   67  A    between atoms: _154  and  _157
REMARK   68  A    between atoms: _157  and  _158
REMARK   69  A    between atoms: _161  and  _163
REMARK   70  A    between atoms: _163  and  _164
REMARK   71  A    between atoms: _163  and  _166
REMARK   72  A    between atoms: _166  and  _167
REMARK   73  A    between atoms: _167  and  _168
REMARK   74  A    between atoms: _168  and  _169
REMARK   75  A    between atoms: _169  and  _170
REMARK   76  A    between atoms: _174  and  _176
REMARK   77  A    between atoms: _176  and  _177
REMARK   78  A    between atoms: _176  and  _179
REMARK   79  A    between atoms: _179  and  _180
REMARK   80  A    between atoms: _180  and  _181
REMARK   81  A    between atoms: _181  and  _182
REMARK   82  A    between atoms: _182  and  _183
REMARK   83  A    between atoms: _187  and  _189
REMARK   84  A    between atoms: _189  and  _190
REMARK   85  A    between atoms: _189  and  _192
REMARK   86  A    between atoms: _192  and  _193
REMARK   87  A    between atoms: _193  and  _194
REMARK   88  A    between atoms: _197  and  _199
REMARK   89  A    between atoms: _199  and  _200
REMARK   90  A    between atoms: _199  and  _202
REMARK   91  A    between atoms: _202  and  _203
REMARK   92  A    between atoms: _206  and  _208
REMARK   93  A    between atoms: _208  and  _209
REMARK   94  A    between atoms: _208  and  _211
REMARK   95  A    between atoms: _211  and  _212
REMARK   96  A    between atoms: _215  and  _217
REMARK   97  A    between atoms: _217  and  _218
REMARK   98  A    between atoms: _217  and  _220
REMARK   99  A    between atoms: _223  and  _225
REMARK  100  A    between atoms: _225  and  _226
REMARK  101  A    between atoms: _225  and  _228
REMARK  102  A    between atoms: _228  and  _229
REMARK  103  A    between atoms: _229  and  _230
REMARK  104  A    between atoms: _230  and  _231
REMARK  105  A    between atoms: _231  and  _232
REMARK  106  A    between atoms: _236  and  _238
REMARK  107  A    between atoms: _238  and  _239
REMARK  108  A    between atoms: _238  and  _241
REMARK  109  A    between atoms: _241  and  _242
REMARK  110  A    between atoms: _245  and  _247
REMARK  111  A    between atoms: _247  and  _248
REMARK  112  A    between atoms: _247  and  _250
REMARK  113  A    between atoms: _250  and  _251
REMARK  114  A    between atoms: _254  and  _256
REMARK  115  A    between atoms: _256  and  _257
REMARK  116  A    between atoms: _256  and  _259
REMARK  117  A    between atoms: _259  and  _260
REMARK  118  A    between atoms: _263  and  _265
REMARK  119  A    between atoms: _265  and  _266
REMARK  120  A    between atoms: _265  and  _268
REMARK  121  A    between atoms: _271  and  _273
REMARK  122  A    between atoms: _273  and  _274
REMARK  123  A    between atoms: _273  and  _276
REMARK  124  A    between atoms: _276  and  _277
REMARK  125  A    between atoms: _283  and  _285
REMARK  126  A    between atoms: _285  and  _286
REMARK  127  A    between atoms: _285  and  _288
REMARK  128  A    between atoms: _288  and  _289
REMARK  129  A    between atoms: _289  and  _290
REMARK  130  A    between atoms: _293  and  _295
REMARK  131  A    between atoms: _295  and  _296
REMARK  132  A    between atoms: _295  and  _298
REMARK  133  A    between atoms: _298  and  _299
REMARK  134  A    between atoms: _305  and  _307
REMARK  135  A    between atoms: _307  and  _308
REMARK  136  A    between atoms: _307  and  _310
REMARK  137  A    between atoms: _310  and  _311
REMARK  138  A    between atoms: _314  and  _316
REMARK  139  A    between atoms: _316  and  _317
REMARK  140  A    between atoms: _316  and  _319
REMARK  141  A    between atoms: _319  and  _320
REMARK  142  A    between atoms: _325  and  _327
REMARK  143  A    between atoms: _327  and  _328
REMARK  144  A    between atoms: _327  and  _330
REMARK  145  A    between atoms: _330  and  _331
REMARK  146  A    between atoms: _331  and  _332
REMARK  147  A    between atoms: _337  and  _339
REMARK  148  A    between atoms: _339  and  _340
REMARK  149  A    between atoms: _339  and  _342
REMARK  150  A    between atoms: _342  and  _343
REMARK  151  A    between atoms: _346  and  _348
REMARK  152  A    between atoms: _348  and  _349
REMARK  153  A    between atoms: _348  and  _351
REMARK  154  A    between atoms: _351  and  _352
REMARK  155  A    between atoms: _355  and  _357
REMARK  156  A    between atoms: _357  and  _358
REMARK  157  A    between atoms: _357  and  _360
REMARK  158  A    between atoms: _360  and  _361
REMARK  159  A    between atoms: _361  and  _362
REMARK  160  A    between atoms: _362  and  _363
REMARK  161  A    between atoms: _363  and  _364
REMARK  162  A    between atoms: _368  and  _370
REMARK  163  A    between atoms: _370  and  _371
REMARK  164  A    between atoms: _370  and  _373
REMARK  165  A    between atoms: _373  and  _374
REMARK  166  A    between atoms: _374  and  _375
REMARK  167  A    between atoms: _375  and  _376
REMARK  168  A    between atoms: _376  and  _377
REMARK  169  A    between atoms: _381  and  _383
REMARK  170  A    between atoms: _383  and  _384
REMARK  171  A    between atoms: _383  and  _386
REMARK  172  A    between atoms: _386  and  _387
REMARK  173  A    between atoms: _394  and  _395
REMARK  174  A    between atoms: _400  and  _402
REMARK  175  A    between atoms: _402  and  _403
REMARK  176  A    between atoms: _402  and  _405
REMARK  177  A    between atoms: _405  and  _406
REMARK  178  A    between atoms: _406  and  _407
REMARK  179  A    between atoms: _412  and  _414
REMARK  180  A    between atoms: _414  and  _415
REMARK  181  A    between atoms: _414  and  _417
REMARK  182  A    between atoms: _417  and  _418
REMARK  183  A    between atoms: _423  and  _425
REMARK  184  A    between atoms: _425  and  _426
REMARK  185  A    between atoms: _425  and  _428
REMARK  186  A    between atoms: _428  and  _429
REMARK  187  A    between atoms: _432  and  _434
REMARK  188  A    between atoms: _434  and  _435
REMARK  189  A    between atoms: _434  and  _437
REMARK  190  A    between atoms: _437  and  _438
REMARK  191  A    between atoms: _441  and  _443
REMARK  192  A    between atoms: _443  and  _444
REMARK  193  A    between atoms: _443  and  _446
REMARK  194  A    between atoms: _446  and  _447
REMARK  195  A    between atoms: _450  and  _452
REMARK  196  A    between atoms: _452  and  _453
REMARK  197  A    between atoms: _452  and  _455
REMARK  198  A    between atoms: _455  and  _456
REMARK  199  A    between atoms: _456  and  _457
REMARK  200  A    between atoms: _457  and  _458
REMARK  201  A    between atoms: _458  and  _459
REMARK  202  A    between atoms: _463  and  _465
REMARK  203  A    between atoms: _465  and  _466
REMARK  204  A    between atoms: _465  and  _468
REMARK  205  A    between atoms: _468  and  _469
REMARK  206  A    between atoms: _472  and  _474
REMARK  207  A    between atoms: _474  and  _475
REMARK  208  A    between atoms: _478  and  _480
REMARK  209  A    between atoms: _480  and  _481
REMARK  210  A    between atoms: _480  and  _483
REMARK  211  A    between atoms: _483  and  _484
REMARK  212  A    between atoms: _487  and  _489
REMARK  213  A    between atoms: _489  and  _490
REMARK  214  A    between atoms: _489  and  _492
REMARK  215  A    between atoms: _492  and  _493
REMARK  216  A    between atoms: _499  and  _501
REMARK  217  A    between atoms: _501  and  _502
REMARK                            x       y       z     vdW  Elec       q    Type
REMARK                         _______ _______ _______ _____ _____    ______ ____
ROOT
ATOM      1  O   HOH     1       2.665  24.872  20.565  0.00  0.00    +0.000 OA
ENDROOT
TORSDOF 0
REMARK  Name = ../refined-set-2016/4bcm/4bcm_pocket.pdb
REMARK  217 active torsions:
REMARK  status: ('A' for Active; 'I' for Inactive)
REMARK    1  A    between atoms: _1  and  _3
REMARK    2  A    between atoms: _3  and  _4
REMARK    3  A    between atoms: _3  and  _6
REMARK    4  A    between atoms: _6  and  _7
REMARK    5  A    between atoms: _7  and  _8
REMARK    6  A    between atoms: _11  and  _13
REMARK    7  A    between atoms: _13  and  _14
REMARK    8  A    between atoms: _13  and  _16
REMARK    9  A    between atoms: _16  and  _17
REMARK   10  A    between atoms: _17  and  _18
REMARK   11  A    between atoms: _18  and  _19
REMARK   12  A    between atoms: _19  and  _20
REMARK   13  A    between atoms: _24  and  _26
REMARK   14  A    between atoms: _26  and  _27
REMARK   15  A    between atoms: _26  and  _29
REMARK   16  A    between atoms: _29  and  _30
REMARK   17  A    between atoms: _33  and  _35
REMARK   18  A    between atoms: _35  and  _36
REMARK   19  A    between atoms: _38  and  _40
REMARK   20  A    between atoms: _40  and  _41
REMARK   21  A    between atoms: _40  and  _43
REMARK   22  A    between atoms: _43  and  _44
REMARK   23  A    between atoms: _44  and  _45
REMARK   24  A    between atoms: _48  and  _50
REMARK   25  A    between atoms: _50  and  _51
REMARK   26  A    between atoms: _53  and  _55
REMARK   27  A    between atoms: _55  and  _56
REMARK   28  A    between atoms: _55  and  _58
REMARK   29  A    between atoms: _58  and  _59
REMARK   30  A    between atoms: _62  and  _64
REMARK   31  A    between atoms: _64  and  _65
REMARK   32  A    between atoms: _64  and  _67
REMARK   33  A    between atoms: _67  and  _68
REMARK   34  A    between atoms: _73  and  _74
REMARK   35  A    between atoms: _76  and  _78
REMARK   36  A    between atoms: _78  and  _79
REMARK   37  A    between atoms: _81  and  _83
REMARK   38  A    between atoms: _83  and  _84
REMARK   39  A    between atoms: _83  and  _86
REMARK   40  A    between atoms: _89  and  _91
REMARK   41  A    between atoms: _91  and  _92
REMARK   42  A    between atoms: _91  and  _94
REMARK   43  A    between atoms: _97  and  _99
REMARK   44  A    between atoms: _99  and  _100
REMARK   45  A    between atoms: _99  and  _102
REMARK   46  A    between atoms: _102  and  _103
REMARK   47  A    between atoms: _108  and  _109
REMARK   48  A    between atoms: _111  and  _113
REMARK   49  A    between atoms: _113  and  _114
REMARK   50  A    between atoms: _113  and  _116
REMARK   51  A    between atoms: _116  and  _117
REMARK   52  A    between atoms: _117  and  _118
REMARK   53  A    between atoms: _118  and  _119
REMARK   54  A    between atoms: _119  and  _120
REMARK   55  A    between atoms: _124  and  _126
REMARK   56  A    between atoms: _126  and  _127
REMARK   57  A    between atoms: _130  and  _132
REMARK   58  A    between atoms: _132  and  _133
REMARK   59  A    between atoms: _132  and  _135
REMARK   60  A    between atoms: _138  and  _140
REMARK   61  A    between atoms: _140  and  _141
REMARK   62  A    between atoms: _140  and  _143
REMARK   63  A    between atoms: _146  and  _148
REMARK   64  A    between atoms: _148  and  _149
REMARK   65  A    between atoms: _152  and  _154
REMARK   66  A    between atoms: _154  and  _155
REMARK   67  A    between atoms: _154  and  _157
REMARK   68  A    between atoms: _157  and  _158
REMARK   69  A    between atoms: _161  and  _163
REMARK   70  A    between atoms: _163  and  _164
REMARK   71  A    between atoms: _163  and  _166
REMARK   72  A    between atoms: _166  and  _167
REMARK   73  A    between atoms: _167  and  _168
REMARK   74  A    between atoms: _168  and  _169
REMARK   75  A    between atoms: _169  and  _170
REMARK   76  A    between atoms: _174  and  _176
REMARK   77  A    between atoms: _176  and  _177
REMARK   78  A    between atoms: _176  and  _179
REMARK   79  A    between atoms: _179  and  _180
REMARK   80  A    between atoms: _180  and  _181
REMARK   81  A    between atoms: _181  and  _182
REMARK   82  A    between atoms: _182  and  _183
REMARK   83  A    between atoms: _187  and  _189
REMARK   84  A    between atoms: _189  and  _190
REMARK   85  A    between atoms: _189  and  _192
REMARK   86  A    between atoms: _192  and  _193
REMARK   87  A    between atoms: _193  and  _194
REMARK   88  A    between atoms: _197  and  _199
REMARK   89  A    between atoms: _199  and  _200
REMARK   90  A    between atoms: _199  and  _202
REMARK   91  A    between atoms: _202  and  _203
REMARK   92  A    between atoms: _206  and  _208
REMARK   93  A    between atoms: _208  and  _209
REMARK   94  A    between atoms: _208  and  _211
REMARK   95  A    between atoms: _211  and  _212
REMARK   96  A    between atoms: _215  and  _217
REMARK   97  A    between atoms: _217  and  _218
REMARK   98  A    between atoms: _217  and  _220
REMARK   99  A    between atoms: _223  and  _225
REMARK  100  A    between atoms: _225  and  _226
REMARK  101  A    between atoms: _225  and  _228
REMARK  102  A    between atoms: _228  and  _229
REMARK  103  A    between atoms: _229  and  _230
REMARK  104  A    between atoms: _230  and  _231
REMARK  105  A    between atoms: _231  and  _232
REMARK  106  A    between atoms: _236  and  _238
REMARK  107  A    between atoms: _238  and  _239
REMARK  108  A    between atoms: _238  and  _241
REMARK  109  A    between atoms: _241  and  _242
REMARK  110  A    between atoms: _245  and  _247
REMARK  111  A    between atoms: _247  and  _248
REMARK  112  A    between atoms: _247  and  _250
REMARK  113  A    between atoms: _250  and  _251
REMARK  114  A    between atoms: _254  and  _256
REMARK  115  A    between atoms: _256  and  _257
REMARK  116  A    between atoms: _256  and  _259
REMARK  117  A    between atoms: _259  and  _260
REMARK  118  A    between atoms: _263  and  _265
REMARK  119  A    between atoms: _265  and  _266
REMARK  120  A    between atoms: _265  and  _268
REMARK  121  A    between atoms: _271  and  _273
REMARK  122  A    between atoms: _273  and  _274
REMARK  123  A    between atoms: _273  and  _276
REMARK  124  A    between atoms: _276  and  _277
REMARK  125  A    between atoms: _283  and  _285
REMARK  126  A    between atoms: _285  and  _286
REMARK  127  A    between atoms: _285  and  _288
REMARK  128  A    between atoms: _288  and  _289
REMARK  129  A    between atoms: _289  and  _290
REMARK  130  A    between atoms: _293  and  _295
REMARK  131  A    between atoms: _295  and  _296
REMARK  132  A    between atoms: _295  and  _298
REMARK  133  A    between atoms: _298  and  _299
REMARK  134  A    between atoms: _305  and  _307
REMARK  135  A    between atoms: _307  and  _308
REMARK  136  A    between atoms: _307  and  _310
REMARK  137  A    between atoms: _310  and  _311
REMARK  138  A    between atoms: _314  and  _316
REMARK  139  A    between atoms: _316  and  _317
REMARK  140  A    between atoms: _316  and  _319
REMARK  141  A    between atoms: _319  and  _320
REMARK  142  A    between atoms: _325  and  _327
REMARK  143  A    between atoms: _327  and  _328
REMARK  144  A    between atoms: _327  and  _330
REMARK  145  A    between atoms: _330  and  _331
REMARK  146  A    between atoms: _331  and  _332
REMARK  147  A    between atoms: _337  and  _339
REMARK  148  A    between atoms: _339  and  _340
REMARK  149  A    between atoms: _339  and  _342
REMARK  150  A    between atoms: _342  and  _343
REMARK  151  A    between atoms: _346  and  _348
REMARK  152  A    between atoms: _348  and  _349
REMARK  153  A    between atoms: _348  and  _351
REMARK  154  A    between atoms: _351  and  _352
REMARK  155  A    between atoms: _355  and  _357
REMARK  156  A    between atoms: _357  and  _358
REMARK  157  A    between atoms: _357  and  _360
REMARK  158  A    between atoms: _360  and  _361
REMARK  159  A    between atoms: _361  and  _362
REMARK  160  A    between atoms: _362  and  _363
REMARK  161  A    between atoms: _363  and  _364
REMARK  162  A    between atoms: _368  and  _370
REMARK  163  A    between atoms: _370  and  _371
REMARK  164  A    between atoms: _370  and  _373
REMARK  165  A    between atoms: _373  and  _374
REMARK  166  A    between atoms: _374  and  _375
REMARK  167  A    between atoms: _375  and  _376
REMARK  168  A    between atoms: _376  and  _377
REMARK  169  A    between atoms: _381  and  _383
REMARK  170  A    between atoms: _383  and  _384
REMARK  171  A    between atoms: _383  and  _386
REMARK  172  A    between atoms: _386  and  _387
REMARK  173  A    between atoms: _394  and  _395
REMARK  174  A    between atoms: _400  and  _402
REMARK  175  A    between atoms: _402  and  _403
REMARK  176  A    between atoms: _402  and  _405
REMARK  177  A    between atoms: _405  and  _406
REMARK  178  A    between atoms: _406  and  _407
REMARK  179  A    between atoms: _412  and  _414
REMARK  180  A    between atoms: _414  and  _415
REMARK  181  A    between atoms: _414  and  _417
REMARK  182  A    between atoms: _417  and  _418
REMARK  183  A    between atoms: _423  and  _425
REMARK  184  A    between atoms: _425  and  _426
REMARK  185  A    between atoms: _425  and  _428
REMARK  186  A    between atoms: _428  and  _429
REMARK  187  A    between atoms: _432  and  _434
REMARK  188  A    between atoms: _434  and  _435
REMARK  189  A    between atoms: _434  and  _437
REMARK  190  A    between atoms: _437  and  _438
REMARK  191  A    between atoms: _441  and  _443
REMARK  192  A    between atoms: _443  and  _444
REMARK  193  A    between atoms: _443  and  _446
REMARK  194  A    between atoms: _446  and  _447
REMARK  195  A    between atoms: _450  and  _452
REMARK  196  A    between atoms: _452  and  _453
REMARK  197  A    between atoms: _452  and  _455
REMARK  198  A    between atoms: _455  and  _456
REMARK  199  A    between atoms: _456  and  _457
REMARK  200  A    between atoms: _457  and  _458
REMARK  201  A    between atoms: _458  and  _459
REMARK  202  A    between atoms: _463  and  _465
REMARK  203  A    between atoms: _465  and  _466
REMARK  204  A    between atoms: _465  and  _468
REMARK  205  A    between atoms: _468  and  _469
REMARK  206  A    between atoms: _472  and  _474
REMARK  207  A    between atoms: _474  and  _475
REMARK  208  A    between atoms: _478  and  _480
REMARK  209  A    between atoms: _480  and  _481
REMARK  210  A    between atoms: _480  and  _483
REMARK  211  A    between atoms: _483  and  _484
REMARK  212  A    between atoms: _487  and  _489
REMARK  213  A    between atoms: _489  and  _490
REMARK  214  A    between atoms: _489  and  _492
REMARK  215  A    between atoms: _492  and  _493
REMARK  216  A    between atoms: _499  and  _501
REMARK  217  A    between atoms: _501  and  _502
REMARK                            x       y       z     vdW  Elec       q    Type
REMARK                         _______ _______ _______ _____ _____    ______ ____
ROOT
ATOM      1  O   HOH     1       9.508  19.664  18.526  0.00  0.00    +0.000 OA
ENDROOT
TORSDOF 0
REMARK  Name = ../refined-set-2016/4bcm/4bcm_pocket.pdb
REMARK  217 active torsions:
REMARK  status: ('A' for Active; 'I' for Inactive)
REMARK    1  A    between atoms: _1  and  _3
REMARK    2  A    between atoms: _3  and  _4
REMARK    3  A    between atoms: _3  and  _6
REMARK    4  A    between atoms: _6  and  _7
REMARK    5  A    between atoms: _7  and  _8
REMARK    6  A    between atoms: _11  and  _13
REMARK    7  A    between atoms: _13  and  _14
REMARK    8  A    between atoms: _13  and  _16
REMARK    9  A    between atoms: _16  and  _17
REMARK   10  A    between atoms: _17  and  _18
REMARK   11  A    between atoms: _18  and  _19
REMARK   12  A    between atoms: _19  and  _20
REMARK   13  A    between atoms: _24  and  _26
REMARK   14  A    between atoms: _26  and  _27
REMARK   15  A    between atoms: _26  and  _29
REMARK   16  A    between atoms: _29  and  _30
REMARK   17  A    between atoms: _33  and  _35
REMARK   18  A    between atoms: _35  and  _36
REMARK   19  A    between atoms: _38  and  _40
REMARK   20  A    between atoms: _40  and  _41
REMARK   21  A    between atoms: _40  and  _43
REMARK   22  A    between atoms: _43  and  _44
REMARK   23  A    between atoms: _44  and  _45
REMARK   24  A    between atoms: _48  and  _50
REMARK   25  A    between atoms: _50  and  _51
REMARK   26  A    between atoms: _53  and  _55
REMARK   27  A    between atoms: _55  and  _56
REMARK   28  A    between atoms: _55  and  _58
REMARK   29  A    between atoms: _58  and  _59
REMARK   30  A    between atoms: _62  and  _64
REMARK   31  A    between atoms: _64  and  _65
REMARK   32  A    between atoms: _64  and  _67
REMARK   33  A    between atoms: _67  and  _68
REMARK   34  A    between atoms: _73  and  _74
REMARK   35  A    between atoms: _76  and  _78
REMARK   36  A    between atoms: _78  and  _79
REMARK   37  A    between atoms: _81  and  _83
REMARK   38  A    between atoms: _83  and  _84
REMARK   39  A    between atoms: _83  and  _86
REMARK   40  A    between atoms: _89  and  _91
REMARK   41  A    between atoms: _91  and  _92
REMARK   42  A    between atoms: _91  and  _94
REMARK   43  A    between atoms: _97  and  _99
REMARK   44  A    between atoms: _99  and  _100
REMARK   45  A    between atoms: _99  and  _102
REMARK   46  A    between atoms: _102  and  _103
REMARK   47  A    between atoms: _108  and  _109
REMARK   48  A    between atoms: _111  and  _113
REMARK   49  A    between atoms: _113  and  _114
REMARK   50  A    between atoms: _113  and  _116
REMARK   51  A    between atoms: _116  and  _117
REMARK   52  A    between atoms: _117  and  _118
REMARK   53  A    between atoms: _118  and  _119
REMARK   54  A    between atoms: _119  and  _120
REMARK   55  A    between atoms: _124  and  _126
REMARK   56  A    between atoms: _126  and  _127
REMARK   57  A    between atoms: _130  and  _132
REMARK   58  A    between atoms: _132  and  _133
REMARK   59  A    between atoms: _132  and  _135
REMARK   60  A    between atoms: _138  and  _140
REMARK   61  A    between atoms: _140  and  _141
REMARK   62  A    between atoms: _140  and  _143
REMARK   63  A    between atoms: _146  and  _148
REMARK   64  A    between atoms: _148  and  _149
REMARK   65  A    between atoms: _152  and  _154
REMARK   66  A    between atoms: _154  and  _155
REMARK   67  A    between atoms: _154  and  _157
REMARK   68  A    between atoms: _157  and  _158
REMARK   69  A    between atoms: _161  and  _163
REMARK   70  A    between atoms: _163  and  _164
REMARK   71  A    between atoms: _163  and  _166
REMARK   72  A    between atoms: _166  and  _167
REMARK   73  A    between atoms: _167  and  _168
REMARK   74  A    between atoms: _168  and  _169
REMARK   75  A    between atoms: _169  and  _170
REMARK   76  A    between atoms: _174  and  _176
REMARK   77  A    between atoms: _176  and  _177
REMARK   78  A    between atoms: _176  and  _179
REMARK   79  A    between atoms: _179  and  _180
REMARK   80  A    between atoms: _180  and  _181
REMARK   81  A    between atoms: _181  and  _182
REMARK   82  A    between atoms: _182  and  _183
REMARK   83  A    between atoms: _187  and  _189
REMARK   84  A    between atoms: _189  and  _190
REMARK   85  A    between atoms: _189  and  _192
REMARK   86  A    between atoms: _192  and  _193
REMARK   87  A    between atoms: _193  and  _194
REMARK   88  A    between atoms: _197  and  _199
REMARK   89  A    between atoms: _199  and  _200
REMARK   90  A    between atoms: _199  and  _202
REMARK   91  A    between atoms: _202  and  _203
REMARK   92  A    between atoms: _206  and  _208
REMARK   93  A    between atoms: _208  and  _209
REMARK   94  A    between atoms: _208  and  _211
REMARK   95  A    between atoms: _211  and  _212
REMARK   96  A    between atoms: _215  and  _217
REMARK   97  A    between atoms: _217  and  _218
REMARK   98  A    between atoms: _217  and  _220
REMARK   99  A    between atoms: _223  and  _225
REMARK  100  A    between atoms: _225  and  _226
REMARK  101  A    between atoms: _225  and  _228
REMARK  102  A    between atoms: _228  and  _229
REMARK  103  A    between atoms: _229  and  _230
REMARK  104  A    between atoms: _230  and  _231
REMARK  105  A    between atoms: _231  and  _232
REMARK  106  A    between atoms: _236  and  _238
REMARK  107  A    between atoms: _238  and  _239
REMARK  108  A    between atoms: _238  and  _241
REMARK  109  A    between atoms: _241  and  _242
REMARK  110  A    between atoms: _245  and  _247
REMARK  111  A    between atoms: _247  and  _248
REMARK  112  A    between atoms: _247  and  _250
REMARK  113  A    between atoms: _250  and  _251
REMARK  114  A    between atoms: _254  and  _256
REMARK  115  A    between atoms: _256  and  _257
REMARK  116  A    between atoms: _256  and  _259
REMARK  117  A    between atoms: _259  and  _260
REMARK  118  A    between atoms: _263  and  _265
REMARK  119  A    between atoms: _265  and  _266
REMARK  120  A    between atoms: _265  and  _268
REMARK  121  A    between atoms: _271  and  _273
REMARK  122  A    between atoms: _273  and  _274
REMARK  123  A    between atoms: _273  and  _276
REMARK  124  A    between atoms: _276  and  _277
REMARK  125  A    between atoms: _283  and  _285
REMARK  126  A    between atoms: _285  and  _286
REMARK  127  A    between atoms: _285  and  _288
REMARK  128  A    between atoms: _288  and  _289
REMARK  129  A    between atoms: _289  and  _290
REMARK  130  A    between atoms: _293  and  _295
REMARK  131  A    between atoms: _295  and  _296
REMARK  132  A    between atoms: _295  and  _298
REMARK  133  A    between atoms: _298  and  _299
REMARK  134  A    between atoms: _305  and  _307
REMARK  135  A    between atoms: _307  and  _308
REMARK  136  A    between atoms: _307  and  _310
REMARK  137  A    between atoms: _310  and  _311
REMARK  138  A    between atoms: _314  and  _316
REMARK  139  A    between atoms: _316  and  _317
REMARK  140  A    between atoms: _316  and  _319
REMARK  141  A    between atoms: _319  and  _320
REMARK  142  A    between atoms: _325  and  _327
REMARK  143  A    between atoms: _327  and  _328
REMARK  144  A    between atoms: _327  and  _330
REMARK  145  A    between atoms: _330  and  _331
REMARK  146  A    between atoms: _331  and  _332
REMARK  147  A    between atoms: _337  and  _339
REMARK  148  A    between atoms: _339  and  _340
REMARK  149  A    between atoms: _339  and  _342
REMARK  150  A    between atoms: _342  and  _343
REMARK  151  A    between atoms: _346  and  _348
REMARK  152  A    between atoms: _348  and  _349
REMARK  153  A    between atoms: _348  and  _351
REMARK  154  A    between atoms: _351  and  _352
REMARK  155  A    between atoms: _355  and  _357
REMARK  156  A    between atoms: _357  and  _358
REMARK  157  A    between atoms: _357  and  _360
REMARK  158  A    between atoms: _360  and  _361
REMARK  159  A    between atoms: _361  and  _362
REMARK  160  A    between atoms: _362  and  _363
REMARK  161  A    between atoms: _363  and  _364
REMARK  162  A    between atoms: _368  and  _370
REMARK  163  A    between atoms: _370  and  _371
REMARK  164  A    between atoms: _370  and  _373
REMARK  165  A    between atoms: _373  and  _374
REMARK  166  A    between atoms: _374  and  _375
REMARK  167  A    between atoms: _375  and  _376
REMARK  168  A    between atoms: _376  and  _377
REMARK  169  A    between atoms: _381  and  _383
REMARK  170  A    between atoms: _383  and  _384
REMARK  171  A    between atoms: _383  and  _386
REMARK  172  A    between atoms: _386  and  _387
REMARK  173  A    between atoms: _394  and  _395
REMARK  174  A    between atoms: _400  and  _402
REMARK  175  A    between atoms: _402  and  _403
REMARK  176  A    between atoms: _402  and  _405
REMARK  177  A    between atoms: _405  and  _406
REMARK  178  A    between atoms: _406  and  _407
REMARK  179  A    between atoms: _412  and  _414
REMARK  180  A    between atoms: _414  and  _415
REMARK  181  A    between atoms: _414  and  _417
REMARK  182  A    between atoms: _417  and  _418
REMARK  183  A    between atoms: _423  and  _425
REMARK  184  A    between atoms: _425  and  _426
REMARK  185  A    between atoms: _425  and  _428
REMARK  186  A    between atoms: _428  and  _429
REMARK  187  A    between atoms: _432  and  _434
REMARK  188  A    between atoms: _434  and  _435
REMARK  189  A    between atoms: _434  and  _437
REMARK  190  A    between atoms: _437  and  _438
REMARK  191  A    between atoms: _441  and  _443
REMARK  192  A    between atoms: _443  and  _444
REMARK  193  A    between atoms: _443  and  _446
REMARK  194  A    between atoms: _446  and  _447
REMARK  195  A    between atoms: _450  and  _452
REMARK  196  A    between atoms: _452  and  _453
REMARK  197  A    between atoms: _452  and  _455
REMARK  198  A    between atoms: _455  and  _456
REMARK  199  A    between atoms: _456  and  _457
REMARK  200  A    between atoms: _457  and  _458
REMARK  201  A    between atoms: _458  and  _459
REMARK  202  A    between atoms: _463  and  _465
REMARK  203  A    between atoms: _465  and  _466
REMARK  204  A    between atoms: _465  and  _468
REMARK  205  A    between atoms: _468  and  _469
REMARK  206  A    between atoms: _472  and  _474
REMARK  207  A    between atoms: _474  and  _475
REMARK  208  A    between atoms: _478  and  _480
REMARK  209  A    between atoms: _480  and  _481
REMARK  210  A    between atoms: _480  and  _483
REMARK  211  A    between atoms: _483  and  _484
REMARK  212  A    between atoms: _487  and  _489
REMARK  213  A    between atoms: _489  and  _490
REMARK  214  A    between atoms: _489  and  _492
REMARK  215  A    between atoms: _492  and  _493
REMARK  216  A    between atoms: _499  and  _501
REMARK  217  A    between atoms: _501  and  _502
REMARK                            x       y       z     vdW  Elec       q    Type
REMARK                         _______ _______ _______ _____ _____    ______ ____
ROOT
ATOM      1  O   HOH     1       4.430  20.817  18.608  0.00  0.00    +0.000 OA
ENDROOT
TORSDOF 0
