REMARK  Name = ../refined-set-2016/4q99/4q99_pocket.pdb
REMARK  130 active torsions:
REMARK  status: ('A' for Active; 'I' for Inactive)
REMARK    1  A    between atoms: _1  and  _3
REMARK    2  A    between atoms: _3  and  _4
REMARK    3  A    between atoms: _3  and  _6
REMARK    4  A    between atoms: _6  and  _7
REMARK    5  A    between atoms: _17  and  _19
REMARK    6  A    between atoms: _19  and  _20
REMARK    7  A    between atoms: _19  and  _22
REMARK    8  A    between atoms: _22  and  _23
REMARK    9  A    between atoms: _28  and  _29
REMARK   10  A    between atoms: _31  and  _33
REMARK   11  A    between atoms: _33  and  _34
REMARK   12  A    between atoms: _33  and  _36
REMARK   13  A    between atoms: _36  and  _37
REMARK   14  A    between atoms: _39  and  _41
REMARK   15  A    between atoms: _41  and  _42
REMARK   16  A    between atoms: _41  and  _44
REMARK   17  A    between atoms: _44  and  _45
REMARK   18  A    between atoms: _50  and  _52
REMARK   19  A    between atoms: _52  and  _53
REMARK   20  A    between atoms: _52  and  _55
REMARK   21  A    between atoms: _55  and  _56
REMARK   22  A    between atoms: _61  and  _63
REMARK   23  A    between atoms: _63  and  _64
REMARK   24  A    between atoms: _63  and  _66
REMARK   25  A    between atoms: _66  and  _67
REMARK   26  A    between atoms: _70  and  _72
REMARK   27  A    between atoms: _72  and  _73
REMARK   28  A    between atoms: _72  and  _75
REMARK   29  A    between atoms: _75  and  _76
REMARK   30  A    between atoms: _76  and  _77
REMARK   31  A    between atoms: _82  and  _84
REMARK   32  A    between atoms: _95  and  _98
REMARK   33  A    between atoms: _98  and  _99
REMARK   34  A    between atoms: _107  and  _108
REMARK   35  A    between atoms: _116  and  _118
REMARK   36  A    between atoms: _118  and  _119
REMARK   37  A    between atoms: _118  and  _121
REMARK   38  A    between atoms: _121  and  _122
REMARK   39  A    between atoms: _122  and  _123
REMARK   40  A    between atoms: _126  and  _128
REMARK   41  A    between atoms: _128  and  _129
REMARK   42  A    between atoms: _128  and  _131
REMARK   43  A    between atoms: _131  and  _132
REMARK   44  A    between atoms: _137  and  _139
REMARK   45  A    between atoms: _139  and  _140
REMARK   46  A    between atoms: _139  and  _142
REMARK   47  A    between atoms: _142  and  _143
REMARK   48  A    between atoms: _143  and  _144
REMARK   49  A    between atoms: _147  and  _149
REMARK   50  A    between atoms: _149  and  _150
REMARK   51  A    between atoms: _149  and  _152
REMARK   52  A    between atoms: _152  and  _153
REMARK   53  A    between atoms: _154  and  ZN_364
REMARK   54  A    between atoms: _158  and  _160
REMARK   55  A    between atoms: _160  and  _161
REMARK   56  A    between atoms: _160  and  _163
REMARK   57  A    between atoms: _163  and  _164
REMARK   58  A    between atoms: _167  and  _169
REMARK   59  A    between atoms: _169  and  _170
REMARK   60  A    between atoms: _169  and  _172
REMARK   61  A    between atoms: _175  and  _177
REMARK   62  A    between atoms: _177  and  _178
REMARK   63  A    between atoms: _177  and  _180
REMARK   64  A    between atoms: _180  and  _181
REMARK   65  A    between atoms: _186  and  _188
REMARK   66  A    between atoms: _188  and  _189
REMARK   67  A    between atoms: _188  and  _191
REMARK   68  A    between atoms: _191  and  _192
REMARK   69  A    between atoms: _198  and  _200
REMARK   70  A    between atoms: _200  and  _201
REMARK   71  A    between atoms: _200  and  _203
REMARK   72  A    between atoms: _206  and  _208
REMARK   73  A    between atoms: _208  and  _209
REMARK   74  A    between atoms: _208  and  _211
REMARK   75  A    between atoms: _211  and  _212
REMARK   76  A    between atoms: _215  and  _217
REMARK   77  A    between atoms: _217  and  _218
REMARK   78  A    between atoms: _221  and  _223
REMARK   79  A    between atoms: _223  and  _224
REMARK   80  A    between atoms: _223  and  _226
REMARK   81  A    between atoms: _229  and  _231
REMARK   82  A    between atoms: _231  and  _232
REMARK   83  A    between atoms: _231  and  _234
REMARK   84  A    between atoms: _234  and  _235
REMARK   85  A    between atoms: _238  and  _240
REMARK   86  A    between atoms: _240  and  _241
REMARK   87  A    between atoms: _240  and  _243
REMARK   88  A    between atoms: _243  and  _244
REMARK   89  A    between atoms: _246  and  _248
REMARK   90  A    between atoms: _248  and  _249
REMARK   91  A    between atoms: _248  and  _251
REMARK   92  A    between atoms: _251  and  _252
REMARK   93  A    between atoms: _255  and  _257
REMARK   94  A    between atoms: _257  and  _258
REMARK   95  A    between atoms: _257  and  _260
REMARK   96  A    between atoms: _260  and  _261
REMARK   97  A    between atoms: _264  and  _266
REMARK   98  A    between atoms: _266  and  _267
REMARK   99  A    between atoms: _266  and  _269
REMARK  100  A    between atoms: _269  and  _270
REMARK  101  A    between atoms: _274  and  _275
REMARK  102  A    between atoms: _281  and  _282
REMARK  103  A    between atoms: _287  and  _289
REMARK  104  A    between atoms: _289  and  _290
REMARK  105  A    between atoms: _289  and  _292
REMARK  106  A    between atoms: _292  and  _293
REMARK  107  A    between atoms: _296  and  _298
REMARK  108  A    between atoms: _298  and  _299
REMARK  109  A    between atoms: _298  and  _301
REMARK  110  A    between atoms: _301  and  _302
REMARK  111  A    between atoms: _305  and  _307
REMARK  112  A    between atoms: _307  and  _308
REMARK  113  A    between atoms: _307  and  _310
REMARK  114  A    between atoms: _312  and  _314
REMARK  115  A    between atoms: _314  and  _315
REMARK  116  A    between atoms: _314  and  _317
REMARK  117  A    between atoms: _320  and  _322
REMARK  118  A    between atoms: _322  and  _323
REMARK  119  A    between atoms: _322  and  _325
REMARK  120  A    between atoms: _325  and  _326
REMARK  121  A    between atoms: _336  and  _338
REMARK  122  A    between atoms: _338  and  _339
REMARK  123  A    between atoms: _338  and  _341
REMARK  124  A    between atoms: _341  and  _342
REMARK  125  A    between atoms: _347  and  _349
REMARK  126  A    between atoms: _349  and  _350
REMARK  127  A    between atoms: _349  and  _352
REMARK  128  A    between atoms: _352  and  _353
REMARK  129  A    between atoms: _353  and  _354
REMARK  130  A    between atoms: _354  and  _355
REMARK                            x       y       z     vdW  Elec       q    Type
REMARK                         _______ _______ _______ _____ _____    ______ ____
ROOT
ATOM      1  CG  TRP A   1      26.715  -0.236  11.942  0.00  0.00    -0.002 A 
ATOM      2  CD2 TRP A   1      25.361  -0.770  11.960  0.00  0.00    +0.013 A 
ATOM      3  CE3 TRP A   1      24.822  -2.039  12.219  0.00  0.00    +0.001 A 
ATOM      4  CZ3 TRP A   1      23.377  -2.199  12.123  0.00  0.00    +0.000 A 
ATOM      5  CH2 TRP A   1      22.554  -1.134  11.805  0.00  0.00    +0.001 A 
ATOM      6  CZ2 TRP A   1      23.093   0.093  11.477  0.00  0.00    +0.017 A 
ATOM      7  CE2 TRP A   1      24.497   0.268  11.601  0.00  0.00    +0.056 A 
ATOM      8  NE1 TRP A   1      25.262   1.395  11.368  0.00  0.00    -0.352 N 
ATOM      9  HE1 TRP A   1      24.888   2.320  11.073  0.00  0.00    +0.166 HD
ATOM     10  CD1 TRP A   1      26.577   1.116  11.581  0.00  0.00    +0.068 A 
ENDROOT
BRANCH   1  11
ATOM     11  CB  TRP A   1      28.019  -0.988  12.312  0.00  0.00    +0.048 C 
BRANCH  11  12
ATOM     12  CA  TRP A   1      28.705  -1.685  11.108  0.00  0.00    +0.106 C 
BRANCH  12  13
ATOM     13  N   TRP A   1      29.302  -0.683  10.248  0.00  0.00    -0.244 NA
ATOM     14  H   TRP A   1      28.960   0.299  10.236  0.00  0.00    +0.141 HD
ENDBRANCH  12  13
BRANCH  12  15
ATOM     15  C   TRP A   1      27.705  -2.498  10.337  0.00  0.00    +0.199 C 
ATOM     16  O   TRP A   1      27.103  -2.068   9.284  0.00  0.00    -0.219 OA
ENDBRANCH  12  15
ENDBRANCH  11  12
ENDBRANCH   1  11
TORSDOF 4
REMARK  Name = ../refined-set-2016/4q99/4q99_pocket.pdb
REMARK  130 active torsions:
REMARK  status: ('A' for Active; 'I' for Inactive)
REMARK    1  A    between atoms: _1  and  _3
REMARK    2  A    between atoms: _3  and  _4
REMARK    3  A    between atoms: _3  and  _6
REMARK    4  A    between atoms: _6  and  _7
REMARK    5  A    between atoms: _17  and  _19
REMARK    6  A    between atoms: _19  and  _20
REMARK    7  A    between atoms: _19  and  _22
REMARK    8  A    between atoms: _22  and  _23
REMARK    9  A    between atoms: _28  and  _29
REMARK   10  A    between atoms: _31  and  _33
REMARK   11  A    between atoms: _33  and  _34
REMARK   12  A    between atoms: _33  and  _36
REMARK   13  A    between atoms: _36  and  _37
REMARK   14  A    between atoms: _39  and  _41
REMARK   15  A    between atoms: _41  and  _42
REMARK   16  A    between atoms: _41  and  _44
REMARK   17  A    between atoms: _44  and  _45
REMARK   18  A    between atoms: _50  and  _52
REMARK   19  A    between atoms: _52  and  _53
REMARK   20  A    between atoms: _52  and  _55
REMARK   21  A    between atoms: _55  and  _56
REMARK   22  A    between atoms: _61  and  _63
REMARK   23  A    between atoms: _63  and  _64
REMARK   24  A    between atoms: _63  and  _66
REMARK   25  A    between atoms: _66  and  _67
REMARK   26  A    between atoms: _70  and  _72
REMARK   27  A    between atoms: _72  and  _73
REMARK   28  A    between atoms: _72  and  _75
REMARK   29  A    between atoms: _75  and  _76
REMARK   30  A    between atoms: _76  and  _77
REMARK   31  A    between atoms: _82  and  _84
REMARK   32  A    between atoms: _95  and  _98
REMARK   33  A    between atoms: _98  and  _99
REMARK   34  A    between atoms: _107  and  _108
REMARK   35  A    between atoms: _116  and  _118
REMARK   36  A    between atoms: _118  and  _119
REMARK   37  A    between atoms: _118  and  _121
REMARK   38  A    between atoms: _121  and  _122
REMARK   39  A    between atoms: _122  and  _123
REMARK   40  A    between atoms: _126  and  _128
REMARK   41  A    between atoms: _128  and  _129
REMARK   42  A    between atoms: _128  and  _131
REMARK   43  A    between atoms: _131  and  _132
REMARK   44  A    between atoms: _137  and  _139
REMARK   45  A    between atoms: _139  and  _140
REMARK   46  A    between atoms: _139  and  _142
REMARK   47  A    between atoms: _142  and  _143
REMARK   48  A    between atoms: _143  and  _144
REMARK   49  A    between atoms: _147  and  _149
REMARK   50  A    between atoms: _149  and  _150
REMARK   51  A    between atoms: _149  and  _152
REMARK   52  A    between atoms: _152  and  _153
REMARK   53  A    between atoms: _154  and  ZN_364
REMARK   54  A    between atoms: _158  and  _160
REMARK   55  A    between atoms: _160  and  _161
REMARK   56  A    between atoms: _160  and  _163
REMARK   57  A    between atoms: _163  and  _164
REMARK   58  A    between atoms: _167  and  _169
REMARK   59  A    between atoms: _169  and  _170
REMARK   60  A    between atoms: _169  and  _172
REMARK   61  A    between atoms: _175  and  _177
REMARK   62  A    between atoms: _177  and  _178
REMARK   63  A    between atoms: _177  and  _180
REMARK   64  A    between atoms: _180  and  _181
REMARK   65  A    between atoms: _186  and  _188
REMARK   66  A    between atoms: _188  and  _189
REMARK   67  A    between atoms: _188  and  _191
REMARK   68  A    between atoms: _191  and  _192
REMARK   69  A    between atoms: _198  and  _200
REMARK   70  A    between atoms: _200  and  _201
REMARK   71  A    between atoms: _200  and  _203
REMARK   72  A    between atoms: _206  and  _208
REMARK   73  A    between atoms: _208  and  _209
REMARK   74  A    between atoms: _208  and  _211
REMARK   75  A    between atoms: _211  and  _212
REMARK   76  A    between atoms: _215  and  _217
REMARK   77  A    between atoms: _217  and  _218
REMARK   78  A    between atoms: _221  and  _223
REMARK   79  A    between atoms: _223  and  _224
REMARK   80  A    between atoms: _223  and  _226
REMARK   81  A    between atoms: _229  and  _231
REMARK   82  A    between atoms: _231  and  _232
REMARK   83  A    between atoms: _231  and  _234
REMARK   84  A    between atoms: _234  and  _235
REMARK   85  A    between atoms: _238  and  _240
REMARK   86  A    between atoms: _240  and  _241
REMARK   87  A    between atoms: _240  and  _243
REMARK   88  A    between atoms: _243  and  _244
REMARK   89  A    between atoms: _246  and  _248
REMARK   90  A    between atoms: _248  and  _249
REMARK   91  A    between atoms: _248  and  _251
REMARK   92  A    between atoms: _251  and  _252
REMARK   93  A    between atoms: _255  and  _257
REMARK   94  A    between atoms: _257  and  _258
REMARK   95  A    between atoms: _257  and  _260
REMARK   96  A    between atoms: _260  and  _261
REMARK   97  A    between atoms: _264  and  _266
REMARK   98  A    between atoms: _266  and  _267
REMARK   99  A    between atoms: _266  and  _269
REMARK  100  A    between atoms: _269  and  _270
REMARK  101  A    between atoms: _274  and  _275
REMARK  102  A    between atoms: _281  and  _282
REMARK  103  A    between atoms: _287  and  _289
REMARK  104  A    between atoms: _289  and  _290
REMARK  105  A    between atoms: _289  and  _292
REMARK  106  A    between atoms: _292  and  _293
REMARK  107  A    between atoms: _296  and  _298
REMARK  108  A    between atoms: _298  and  _299
REMARK  109  A    between atoms: _298  and  _301
REMARK  110  A    between atoms: _301  and  _302
REMARK  111  A    between atoms: _305  and  _307
REMARK  112  A    between atoms: _307  and  _308
REMARK  113  A    between atoms: _307  and  _310
REMARK  114  A    between atoms: _312  and  _314
REMARK  115  A    between atoms: _314  and  _315
REMARK  116  A    between atoms: _314  and  _317
REMARK  117  A    between atoms: _320  and  _322
REMARK  118  A    between atoms: _322  and  _323
REMARK  119  A    between atoms: _322  and  _325
REMARK  120  A    between atoms: _325  and  _326
REMARK  121  A    between atoms: _336  and  _338
REMARK  122  A    between atoms: _338  and  _339
REMARK  123  A    between atoms: _338  and  _341
REMARK  124  A    between atoms: _341  and  _342
REMARK  125  A    between atoms: _347  and  _349
REMARK  126  A    between atoms: _349  and  _350
REMARK  127  A    between atoms: _349  and  _352
REMARK  128  A    between atoms: _352  and  _353
REMARK  129  A    between atoms: _353  and  _354
REMARK  130  A    between atoms: _354  and  _355
REMARK                            x       y       z     vdW  Elec       q    Type
REMARK                         _______ _______ _______ _____ _____    ______ ____
ROOT
ATOM      1  CG  TYR A   1      23.089  -7.360  11.821  0.00  0.00    -0.020 A 
ATOM      2  CD2 TYR A   1      22.673  -7.390  13.154  0.00  0.00    -0.001 A 
ATOM      3  CE2 TYR A   1      21.832  -6.365  13.612  0.00  0.00    +0.036 A 
ATOM      4  CZ  TYR A   1      21.336  -5.419  12.763  0.00  0.00    +0.134 A 
ATOM      5  CE1 TYR A   1      21.729  -5.340  11.424  0.00  0.00    +0.036 A 
ATOM      6  CD1 TYR A   1      22.569  -6.389  10.961  0.00  0.00    -0.001 A 
ENDROOT
BRANCH   4   7
ATOM      7  OH  TYR A   1      20.501  -4.413  13.131  0.00  0.00    -0.506 OA
ATOM      8  HH  TYR A   1      20.257  -4.520  14.084  0.00  0.00    +0.292 HD
ENDBRANCH   4   7
BRANCH   1   9
ATOM      9  CB  TYR A   1      24.008  -8.460  11.346  0.00  0.00    +0.051 C 
BRANCH   9  10
ATOM     10  CA  TYR A   1      25.498  -8.085  11.521  0.00  0.00    +0.137 C 
BRANCH  10  11
ATOM     11  N   TYR A   1      25.840  -6.936  10.721  0.00  0.00    -0.239 NA
ATOM     12  H   TYR A   1      25.852  -7.030   9.685  0.00  0.00    +0.142 HD
ENDBRANCH  10  11
BRANCH  10  13
ATOM     13  C   TYR A   1      26.373  -9.297  11.305  0.00  0.00    +0.224 C 
ATOM     14  O   TYR A   1      26.031 -10.393  11.772  0.00  0.00    -0.287 OA
ENDBRANCH  10  13
ENDBRANCH   9  10
ENDBRANCH   1   9
TORSDOF 5
REMARK  Name = ../refined-set-2016/4q99/4q99_pocket.pdb
REMARK  130 active torsions:
REMARK  status: ('A' for Active; 'I' for Inactive)
REMARK    1  A    between atoms: _1  and  _3
REMARK    2  A    between atoms: _3  and  _4
REMARK    3  A    between atoms: _3  and  _6
REMARK    4  A    between atoms: _6  and  _7
REMARK    5  A    between atoms: _17  and  _19
REMARK    6  A    between atoms: _19  and  _20
REMARK    7  A    between atoms: _19  and  _22
REMARK    8  A    between atoms: _22  and  _23
REMARK    9  A    between atoms: _28  and  _29
REMARK   10  A    between atoms: _31  and  _33
REMARK   11  A    between atoms: _33  and  _34
REMARK   12  A    between atoms: _33  and  _36
REMARK   13  A    between atoms: _36  and  _37
REMARK   14  A    between atoms: _39  and  _41
REMARK   15  A    between atoms: _41  and  _42
REMARK   16  A    between atoms: _41  and  _44
REMARK   17  A    between atoms: _44  and  _45
REMARK   18  A    between atoms: _50  and  _52
REMARK   19  A    between atoms: _52  and  _53
REMARK   20  A    between atoms: _52  and  _55
REMARK   21  A    between atoms: _55  and  _56
REMARK   22  A    between atoms: _61  and  _63
REMARK   23  A    between atoms: _63  and  _64
REMARK   24  A    between atoms: _63  and  _66
REMARK   25  A    between atoms: _66  and  _67
REMARK   26  A    between atoms: _70  and  _72
REMARK   27  A    between atoms: _72  and  _73
REMARK   28  A    between atoms: _72  and  _75
REMARK   29  A    between atoms: _75  and  _76
REMARK   30  A    between atoms: _76  and  _77
REMARK   31  A    between atoms: _82  and  _84
REMARK   32  A    between atoms: _95  and  _98
REMARK   33  A    between atoms: _98  and  _99
REMARK   34  A    between atoms: _107  and  _108
REMARK   35  A    between atoms: _116  and  _118
REMARK   36  A    between atoms: _118  and  _119
REMARK   37  A    between atoms: _118  and  _121
REMARK   38  A    between atoms: _121  and  _122
REMARK   39  A    between atoms: _122  and  _123
REMARK   40  A    between atoms: _126  and  _128
REMARK   41  A    between atoms: _128  and  _129
REMARK   42  A    between atoms: _128  and  _131
REMARK   43  A    between atoms: _131  and  _132
REMARK   44  A    between atoms: _137  and  _139
REMARK   45  A    between atoms: _139  and  _140
REMARK   46  A    between atoms: _139  and  _142
REMARK   47  A    between atoms: _142  and  _143
REMARK   48  A    between atoms: _143  and  _144
REMARK   49  A    between atoms: _147  and  _149
REMARK   50  A    between atoms: _149  and  _150
REMARK   51  A    between atoms: _149  and  _152
REMARK   52  A    between atoms: _152  and  _153
REMARK   53  A    between atoms: _154  and  ZN_364
REMARK   54  A    between atoms: _158  and  _160
REMARK   55  A    between atoms: _160  and  _161
REMARK   56  A    between atoms: _160  and  _163
REMARK   57  A    between atoms: _163  and  _164
REMARK   58  A    between atoms: _167  and  _169
REMARK   59  A    between atoms: _169  and  _170
REMARK   60  A    between atoms: _169  and  _172
REMARK   61  A    between atoms: _175  and  _177
REMARK   62  A    between atoms: _177  and  _178
REMARK   63  A    between atoms: _177  and  _180
REMARK   64  A    between atoms: _180  and  _181
REMARK   65  A    between atoms: _186  and  _188
REMARK   66  A    between atoms: _188  and  _189
REMARK   67  A    between atoms: _188  and  _191
REMARK   68  A    between atoms: _191  and  _192
REMARK   69  A    between atoms: _198  and  _200
REMARK   70  A    between atoms: _200  and  _201
REMARK   71  A    between atoms: _200  and  _203
REMARK   72  A    between atoms: _206  and  _208
REMARK   73  A    between atoms: _208  and  _209
REMARK   74  A    between atoms: _208  and  _211
REMARK   75  A    between atoms: _211  and  _212
REMARK   76  A    between atoms: _215  and  _217
REMARK   77  A    between atoms: _217  and  _218
REMARK   78  A    between atoms: _221  and  _223
REMARK   79  A    between atoms: _223  and  _224
REMARK   80  A    between atoms: _223  and  _226
REMARK   81  A    between atoms: _229  and  _231
REMARK   82  A    between atoms: _231  and  _232
REMARK   83  A    between atoms: _231  and  _234
REMARK   84  A    between atoms: _234  and  _235
REMARK   85  A    between atoms: _238  and  _240
REMARK   86  A    between atoms: _240  and  _241
REMARK   87  A    between atoms: _240  and  _243
REMARK   88  A    between atoms: _243  and  _244
REMARK   89  A    between atoms: _246  and  _248
REMARK   90  A    between atoms: _248  and  _249
REMARK   91  A    between atoms: _248  and  _251
REMARK   92  A    between atoms: _251  and  _252
REMARK   93  A    between atoms: _255  and  _257
REMARK   94  A    between atoms: _257  and  _258
REMARK   95  A    between atoms: _257  and  _260
REMARK   96  A    between atoms: _260  and  _261
REMARK   97  A    between atoms: _264  and  _266
REMARK   98  A    between atoms: _266  and  _267
REMARK   99  A    between atoms: _266  and  _269
REMARK  100  A    between atoms: _269  and  _270
REMARK  101  A    between atoms: _274  and  _275
REMARK  102  A    between atoms: _281  and  _282
REMARK  103  A    between atoms: _287  and  _289
REMARK  104  A    between atoms: _289  and  _290
REMARK  105  A    between atoms: _289  and  _292
REMARK  106  A    between atoms: _292  and  _293
REMARK  107  A    between atoms: _296  and  _298
REMARK  108  A    between atoms: _298  and  _299
REMARK  109  A    between atoms: _298  and  _301
REMARK  110  A    between atoms: _301  and  _302
REMARK  111  A    between atoms: _305  and  _307
REMARK  112  A    between atoms: _307  and  _308
REMARK  113  A    between atoms: _307  and  _310
REMARK  114  A    between atoms: _312  and  _314
REMARK  115  A    between atoms: _314  and  _315
REMARK  116  A    between atoms: _314  and  _317
REMARK  117  A    between atoms: _320  and  _322
REMARK  118  A    between atoms: _322  and  _323
REMARK  119  A    between atoms: _322  and  _325
REMARK  120  A    between atoms: _325  and  _326
REMARK  121  A    between atoms: _336  and  _338
REMARK  122  A    between atoms: _338  and  _339
REMARK  123  A    between atoms: _338  and  _341
REMARK  124  A    between atoms: _341  and  _342
REMARK  125  A    between atoms: _347  and  _349
REMARK  126  A    between atoms: _349  and  _350
REMARK  127  A    between atoms: _349  and  _352
REMARK  128  A    between atoms: _352  and  _353
REMARK  129  A    between atoms: _353  and  _354
REMARK  130  A    between atoms: _354  and  _355
REMARK                            x       y       z     vdW  Elec       q    Type
REMARK                         _______ _______ _______ _____ _____    ______ ____
ROOT
ATOM      1  CA  SER A   1      18.262  -2.466  24.214  0.00  0.00    +0.163 C 
ENDROOT
BRANCH   1   2
ATOM      2  N   SER A   1      19.347  -1.592  24.713  0.00  0.00    -0.237 NA
ATOM      3  H   SER A   1      19.895  -1.037  24.024  0.00  0.00    +0.142 HD
ENDBRANCH   1   2
BRANCH   1   4
ATOM      4  C   SER A   1      18.788  -3.384  23.138  0.00  0.00    +0.227 C 
ATOM      5  O   SER A   1      19.755  -3.008  22.461  0.00  0.00    -0.287 OA
ENDBRANCH   1   4
BRANCH   1   6
ATOM      6  CB  SER A   1      17.112  -1.632  23.641  0.00  0.00    +0.162 C 
BRANCH   6   7
ATOM      7  OG  SER A   1      16.481  -0.951  24.760  0.00  0.00    -0.380 OA
ATOM      8  H   SER A   1      16.140  -1.622  25.403  0.00  0.00    +0.211 HD
ENDBRANCH   6   7
ENDBRANCH   1   6
TORSDOF 4
REMARK  Name = ../refined-set-2016/4q99/4q99_pocket.pdb
REMARK  130 active torsions:
REMARK  status: ('A' for Active; 'I' for Inactive)
REMARK    1  A    between atoms: _1  and  _3
REMARK    2  A    between atoms: _3  and  _4
REMARK    3  A    between atoms: _3  and  _6
REMARK    4  A    between atoms: _6  and  _7
REMARK    5  A    between atoms: _17  and  _19
REMARK    6  A    between atoms: _19  and  _20
REMARK    7  A    between atoms: _19  and  _22
REMARK    8  A    between atoms: _22  and  _23
REMARK    9  A    between atoms: _28  and  _29
REMARK   10  A    between atoms: _31  and  _33
REMARK   11  A    between atoms: _33  and  _34
REMARK   12  A    between atoms: _33  and  _36
REMARK   13  A    between atoms: _36  and  _37
REMARK   14  A    between atoms: _39  and  _41
REMARK   15  A    between atoms: _41  and  _42
REMARK   16  A    between atoms: _41  and  _44
REMARK   17  A    between atoms: _44  and  _45
REMARK   18  A    between atoms: _50  and  _52
REMARK   19  A    between atoms: _52  and  _53
REMARK   20  A    between atoms: _52  and  _55
REMARK   21  A    between atoms: _55  and  _56
REMARK   22  A    between atoms: _61  and  _63
REMARK   23  A    between atoms: _63  and  _64
REMARK   24  A    between atoms: _63  and  _66
REMARK   25  A    between atoms: _66  and  _67
REMARK   26  A    between atoms: _70  and  _72
REMARK   27  A    between atoms: _72  and  _73
REMARK   28  A    between atoms: _72  and  _75
REMARK   29  A    between atoms: _75  and  _76
REMARK   30  A    between atoms: _76  and  _77
REMARK   31  A    between atoms: _82  and  _84
REMARK   32  A    between atoms: _95  and  _98
REMARK   33  A    between atoms: _98  and  _99
REMARK   34  A    between atoms: _107  and  _108
REMARK   35  A    between atoms: _116  and  _118
REMARK   36  A    between atoms: _118  and  _119
REMARK   37  A    between atoms: _118  and  _121
REMARK   38  A    between atoms: _121  and  _122
REMARK   39  A    between atoms: _122  and  _123
REMARK   40  A    between atoms: _126  and  _128
REMARK   41  A    between atoms: _128  and  _129
REMARK   42  A    between atoms: _128  and  _131
REMARK   43  A    between atoms: _131  and  _132
REMARK   44  A    between atoms: _137  and  _139
REMARK   45  A    between atoms: _139  and  _140
REMARK   46  A    between atoms: _139  and  _142
REMARK   47  A    between atoms: _142  and  _143
REMARK   48  A    between atoms: _143  and  _144
REMARK   49  A    between atoms: _147  and  _149
REMARK   50  A    between atoms: _149  and  _150
REMARK   51  A    between atoms: _149  and  _152
REMARK   52  A    between atoms: _152  and  _153
REMARK   53  A    between atoms: _154  and  ZN_364
REMARK   54  A    between atoms: _158  and  _160
REMARK   55  A    between atoms: _160  and  _161
REMARK   56  A    between atoms: _160  and  _163
REMARK   57  A    between atoms: _163  and  _164
REMARK   58  A    between atoms: _167  and  _169
REMARK   59  A    between atoms: _169  and  _170
REMARK   60  A    between atoms: _169  and  _172
REMARK   61  A    between atoms: _175  and  _177
REMARK   62  A    between atoms: _177  and  _178
REMARK   63  A    between atoms: _177  and  _180
REMARK   64  A    between atoms: _180  and  _181
REMARK   65  A    between atoms: _186  and  _188
REMARK   66  A    between atoms: _188  and  _189
REMARK   67  A    between atoms: _188  and  _191
REMARK   68  A    between atoms: _191  and  _192
REMARK   69  A    between atoms: _198  and  _200
REMARK   70  A    between atoms: _200  and  _201
REMARK   71  A    between atoms: _200  and  _203
REMARK   72  A    between atoms: _206  and  _208
REMARK   73  A    between atoms: _208  and  _209
REMARK   74  A    between atoms: _208  and  _211
REMARK   75  A    between atoms: _211  and  _212
REMARK   76  A    between atoms: _215  and  _217
REMARK   77  A    between atoms: _217  and  _218
REMARK   78  A    between atoms: _221  and  _223
REMARK   79  A    between atoms: _223  and  _224
REMARK   80  A    between atoms: _223  and  _226
REMARK   81  A    between atoms: _229  and  _231
REMARK   82  A    between atoms: _231  and  _232
REMARK   83  A    between atoms: _231  and  _234
REMARK   84  A    between atoms: _234  and  _235
REMARK   85  A    between atoms: _238  and  _240
REMARK   86  A    between atoms: _240  and  _241
REMARK   87  A    between atoms: _240  and  _243
REMARK   88  A    between atoms: _243  and  _244
REMARK   89  A    between atoms: _246  and  _248
REMARK   90  A    between atoms: _248  and  _249
REMARK   91  A    between atoms: _248  and  _251
REMARK   92  A    between atoms: _251  and  _252
REMARK   93  A    between atoms: _255  and  _257
REMARK   94  A    between atoms: _257  and  _258
REMARK   95  A    between atoms: _257  and  _260
REMARK   96  A    between atoms: _260  and  _261
REMARK   97  A    between atoms: _264  and  _266
REMARK   98  A    between atoms: _266  and  _267
REMARK   99  A    between atoms: _266  and  _269
REMARK  100  A    between atoms: _269  and  _270
REMARK  101  A    between atoms: _274  and  _275
REMARK  102  A    between atoms: _281  and  _282
REMARK  103  A    between atoms: _287  and  _289
REMARK  104  A    between atoms: _289  and  _290
REMARK  105  A    between atoms: _289  and  _292
REMARK  106  A    between atoms: _292  and  _293
REMARK  107  A    between atoms: _296  and  _298
REMARK  108  A    between atoms: _298  and  _299
REMARK  109  A    between atoms: _298  and  _301
REMARK  110  A    between atoms: _301  and  _302
REMARK  111  A    between atoms: _305  and  _307
REMARK  112  A    between atoms: _307  and  _308
REMARK  113  A    between atoms: _307  and  _310
REMARK  114  A    between atoms: _312  and  _314
REMARK  115  A    between atoms: _314  and  _315
REMARK  116  A    between atoms: _314  and  _317
REMARK  117  A    between atoms: _320  and  _322
REMARK  118  A    between atoms: _322  and  _323
REMARK  119  A    between atoms: _322  and  _325
REMARK  120  A    between atoms: _325  and  _326
REMARK  121  A    between atoms: _336  and  _338
REMARK  122  A    between atoms: _338  and  _339
REMARK  123  A    between atoms: _338  and  _341
REMARK  124  A    between atoms: _341  and  _342
REMARK  125  A    between atoms: _347  and  _349
REMARK  126  A    between atoms: _349  and  _350
REMARK  127  A    between atoms: _349  and  _352
REMARK  128  A    between atoms: _352  and  _353
REMARK  129  A    between atoms: _353  and  _354
REMARK  130  A    between atoms: _354  and  _355
REMARK                            x       y       z     vdW  Elec       q    Type
REMARK                         _______ _______ _______ _____ _____    ______ ____
ROOT
ATOM      1  CB  ASN A   1      18.564   1.843   5.311  0.00  0.00    +0.110 C 
ENDROOT
BRANCH   1   2
ATOM      2  CG  ASN A   1      18.231   0.984   6.526  0.00  0.00    +0.221 C 
ATOM      3  ND2 ASN A   1      17.549   1.549   7.456  0.00  0.00    -0.329 N 
ATOM      4 HD21 ASN A   1      17.294   1.015   8.311  0.00  0.00    +0.145 HD
ATOM      5 HD22 ASN A   1      17.252   2.540   7.354  0.00  0.00    +0.145 HD
ATOM      6  OD1 ASN A   1      18.619  -0.184   6.574  0.00  0.00    -0.275 OA
ENDBRANCH   1   2
BRANCH   1   7
ATOM      7  CA  ASN A   1      18.930   0.975   4.081  0.00  0.00    +0.142 C 
BRANCH   7   8
ATOM      8  N   ASN A   1      17.810   0.123   3.625  0.00  0.00    -0.239 NA
ATOM      9  H   ASN A   1      17.260  -0.431   4.312  0.00  0.00    +0.142 HD
ENDBRANCH   7   8
BRANCH   7  10
ATOM     10  C   ASN A   1      20.201   0.210   4.292  0.00  0.00    +0.225 C 
ATOM     11  O   ASN A   1      21.201   0.716   4.844  0.00  0.00    -0.287 OA
ENDBRANCH   7  10
ENDBRANCH   1   7
TORSDOF 4
REMARK  Name = ../refined-set-2016/4q99/4q99_pocket.pdb
REMARK  130 active torsions:
REMARK  status: ('A' for Active; 'I' for Inactive)
REMARK    1  A    between atoms: _1  and  _3
REMARK    2  A    between atoms: _3  and  _4
REMARK    3  A    between atoms: _3  and  _6
REMARK    4  A    between atoms: _6  and  _7
REMARK    5  A    between atoms: _17  and  _19
REMARK    6  A    between atoms: _19  and  _20
REMARK    7  A    between atoms: _19  and  _22
REMARK    8  A    between atoms: _22  and  _23
REMARK    9  A    between atoms: _28  and  _29
REMARK   10  A    between atoms: _31  and  _33
REMARK   11  A    between atoms: _33  and  _34
REMARK   12  A    between atoms: _33  and  _36
REMARK   13  A    between atoms: _36  and  _37
REMARK   14  A    between atoms: _39  and  _41
REMARK   15  A    between atoms: _41  and  _42
REMARK   16  A    between atoms: _41  and  _44
REMARK   17  A    between atoms: _44  and  _45
REMARK   18  A    between atoms: _50  and  _52
REMARK   19  A    between atoms: _52  and  _53
REMARK   20  A    between atoms: _52  and  _55
REMARK   21  A    between atoms: _55  and  _56
REMARK   22  A    between atoms: _61  and  _63
REMARK   23  A    between atoms: _63  and  _64
REMARK   24  A    between atoms: _63  and  _66
REMARK   25  A    between atoms: _66  and  _67
REMARK   26  A    between atoms: _70  and  _72
REMARK   27  A    between atoms: _72  and  _73
REMARK   28  A    between atoms: _72  and  _75
REMARK   29  A    between atoms: _75  and  _76
REMARK   30  A    between atoms: _76  and  _77
REMARK   31  A    between atoms: _82  and  _84
REMARK   32  A    between atoms: _95  and  _98
REMARK   33  A    between atoms: _98  and  _99
REMARK   34  A    between atoms: _107  and  _108
REMARK   35  A    between atoms: _116  and  _118
REMARK   36  A    between atoms: _118  and  _119
REMARK   37  A    between atoms: _118  and  _121
REMARK   38  A    between atoms: _121  and  _122
REMARK   39  A    between atoms: _122  and  _123
REMARK   40  A    between atoms: _126  and  _128
REMARK   41  A    between atoms: _128  and  _129
REMARK   42  A    between atoms: _128  and  _131
REMARK   43  A    between atoms: _131  and  _132
REMARK   44  A    between atoms: _137  and  _139
REMARK   45  A    between atoms: _139  and  _140
REMARK   46  A    between atoms: _139  and  _142
REMARK   47  A    between atoms: _142  and  _143
REMARK   48  A    between atoms: _143  and  _144
REMARK   49  A    between atoms: _147  and  _149
REMARK   50  A    between atoms: _149  and  _150
REMARK   51  A    between atoms: _149  and  _152
REMARK   52  A    between atoms: _152  and  _153
REMARK   53  A    between atoms: _154  and  ZN_364
REMARK   54  A    between atoms: _158  and  _160
REMARK   55  A    between atoms: _160  and  _161
REMARK   56  A    between atoms: _160  and  _163
REMARK   57  A    between atoms: _163  and  _164
REMARK   58  A    between atoms: _167  and  _169
REMARK   59  A    between atoms: _169  and  _170
REMARK   60  A    between atoms: _169  and  _172
REMARK   61  A    between atoms: _175  and  _177
REMARK   62  A    between atoms: _177  and  _178
REMARK   63  A    between atoms: _177  and  _180
REMARK   64  A    between atoms: _180  and  _181
REMARK   65  A    between atoms: _186  and  _188
REMARK   66  A    between atoms: _188  and  _189
REMARK   67  A    between atoms: _188  and  _191
REMARK   68  A    between atoms: _191  and  _192
REMARK   69  A    between atoms: _198  and  _200
REMARK   70  A    between atoms: _200  and  _201
REMARK   71  A    between atoms: _200  and  _203
REMARK   72  A    between atoms: _206  and  _208
REMARK   73  A    between atoms: _208  and  _209
REMARK   74  A    between atoms: _208  and  _211
REMARK   75  A    between atoms: _211  and  _212
REMARK   76  A    between atoms: _215  and  _217
REMARK   77  A    between atoms: _217  and  _218
REMARK   78  A    between atoms: _221  and  _223
REMARK   79  A    between atoms: _223  and  _224
REMARK   80  A    between atoms: _223  and  _226
REMARK   81  A    between atoms: _229  and  _231
REMARK   82  A    between atoms: _231  and  _232
REMARK   83  A    between atoms: _231  and  _234
REMARK   84  A    between atoms: _234  and  _235
REMARK   85  A    between atoms: _238  and  _240
REMARK   86  A    between atoms: _240  and  _241
REMARK   87  A    between atoms: _240  and  _243
REMARK   88  A    between atoms: _243  and  _244
REMARK   89  A    between atoms: _246  and  _248
REMARK   90  A    between atoms: _248  and  _249
REMARK   91  A    between atoms: _248  and  _251
REMARK   92  A    between atoms: _251  and  _252
REMARK   93  A    between atoms: _255  and  _257
REMARK   94  A    between atoms: _257  and  _258
REMARK   95  A    between atoms: _257  and  _260
REMARK   96  A    between atoms: _260  and  _261
REMARK   97  A    between atoms: _264  and  _266
REMARK   98  A    between atoms: _266  and  _267
REMARK   99  A    between atoms: _266  and  _269
REMARK  100  A    between atoms: _269  and  _270
REMARK  101  A    between atoms: _274  and  _275
REMARK  102  A    between atoms: _281  and  _282
REMARK  103  A    between atoms: _287  and  _289
REMARK  104  A    between atoms: _289  and  _290
REMARK  105  A    between atoms: _289  and  _292
REMARK  106  A    between atoms: _292  and  _293
REMARK  107  A    between atoms: _296  and  _298
REMARK  108  A    between atoms: _298  and  _299
REMARK  109  A    between atoms: _298  and  _301
REMARK  110  A    between atoms: _301  and  _302
REMARK  111  A    between atoms: _305  and  _307
REMARK  112  A    between atoms: _307  and  _308
REMARK  113  A    between atoms: _307  and  _310
REMARK  114  A    between atoms: _312  and  _314
REMARK  115  A    between atoms: _314  and  _315
REMARK  116  A    between atoms: _314  and  _317
REMARK  117  A    between atoms: _320  and  _322
REMARK  118  A    between atoms: _322  and  _323
REMARK  119  A    between atoms: _322  and  _325
REMARK  120  A    between atoms: _325  and  _326
REMARK  121  A    between atoms: _336  and  _338
REMARK  122  A    between atoms: _338  and  _339
REMARK  123  A    between atoms: _338  and  _341
REMARK  124  A    between atoms: _341  and  _342
REMARK  125  A    between atoms: _347  and  _349
REMARK  126  A    between atoms: _349  and  _350
REMARK  127  A    between atoms: _349  and  _352
REMARK  128  A    between atoms: _352  and  _353
REMARK  129  A    between atoms: _353  and  _354
REMARK  130  A    between atoms: _354  and  _355
REMARK                            x       y       z     vdW  Elec       q    Type
REMARK                         _______ _______ _______ _____ _____    ______ ____
ROOT
ATOM      1  CB  ASN A   1      12.702   2.604   6.891  0.00  0.00    +0.110 C 
ENDROOT
BRANCH   1   2
ATOM      2  CG  ASN A   1      13.758   2.423   7.929  0.00  0.00    +0.221 C 
ATOM      3  OD1 ASN A   1      13.768   1.434   8.665  0.00  0.00    -0.275 OA
ATOM      4  ND2 ASN A   1      14.699   3.358   7.989  0.00  0.00    -0.329 N 
ATOM      5 HD21 ASN A   1      15.477   3.269   8.673  0.00  0.00    +0.145 HD
ATOM      6 HD22 ASN A   1      14.658   4.179   7.352  0.00  0.00    +0.145 HD
ENDBRANCH   1   2
BRANCH   1   7
ATOM      7  CA  ASN A   1      11.930   1.300   6.550  0.00  0.00    +0.142 C 
BRANCH   7   8
ATOM      8  N   ASN A   1      12.804   0.369   5.844  0.00  0.00    -0.239 NA
ATOM      9  H   ASN A   1      13.339   0.689   5.011  0.00  0.00    +0.142 HD
ENDBRANCH   7   8
BRANCH   7  10
ATOM     10  C   ASN A   1      10.713   1.684   5.747  0.00  0.00    +0.225 C 
ATOM     11  O   ASN A   1      10.887   2.110   4.607  0.00  0.00    -0.287 OA
ENDBRANCH   7  10
ENDBRANCH   1   7
TORSDOF 4
REMARK  Name = ../refined-set-2016/4q99/4q99_pocket.pdb
REMARK  130 active torsions:
REMARK  status: ('A' for Active; 'I' for Inactive)
REMARK    1  A    between atoms: _1  and  _3
REMARK    2  A    between atoms: _3  and  _4
REMARK    3  A    between atoms: _3  and  _6
REMARK    4  A    between atoms: _6  and  _7
REMARK    5  A    between atoms: _17  and  _19
REMARK    6  A    between atoms: _19  and  _20
REMARK    7  A    between atoms: _19  and  _22
REMARK    8  A    between atoms: _22  and  _23
REMARK    9  A    between atoms: _28  and  _29
REMARK   10  A    between atoms: _31  and  _33
REMARK   11  A    between atoms: _33  and  _34
REMARK   12  A    between atoms: _33  and  _36
REMARK   13  A    between atoms: _36  and  _37
REMARK   14  A    between atoms: _39  and  _41
REMARK   15  A    between atoms: _41  and  _42
REMARK   16  A    between atoms: _41  and  _44
REMARK   17  A    between atoms: _44  and  _45
REMARK   18  A    between atoms: _50  and  _52
REMARK   19  A    between atoms: _52  and  _53
REMARK   20  A    between atoms: _52  and  _55
REMARK   21  A    between atoms: _55  and  _56
REMARK   22  A    between atoms: _61  and  _63
REMARK   23  A    between atoms: _63  and  _64
REMARK   24  A    between atoms: _63  and  _66
REMARK   25  A    between atoms: _66  and  _67
REMARK   26  A    between atoms: _70  and  _72
REMARK   27  A    between atoms: _72  and  _73
REMARK   28  A    between atoms: _72  and  _75
REMARK   29  A    between atoms: _75  and  _76
REMARK   30  A    between atoms: _76  and  _77
REMARK   31  A    between atoms: _82  and  _84
REMARK   32  A    between atoms: _95  and  _98
REMARK   33  A    between atoms: _98  and  _99
REMARK   34  A    between atoms: _107  and  _108
REMARK   35  A    between atoms: _116  and  _118
REMARK   36  A    between atoms: _118  and  _119
REMARK   37  A    between atoms: _118  and  _121
REMARK   38  A    between atoms: _121  and  _122
REMARK   39  A    between atoms: _122  and  _123
REMARK   40  A    between atoms: _126  and  _128
REMARK   41  A    between atoms: _128  and  _129
REMARK   42  A    between atoms: _128  and  _131
REMARK   43  A    between atoms: _131  and  _132
REMARK   44  A    between atoms: _137  and  _139
REMARK   45  A    between atoms: _139  and  _140
REMARK   46  A    between atoms: _139  and  _142
REMARK   47  A    between atoms: _142  and  _143
REMARK   48  A    between atoms: _143  and  _144
REMARK   49  A    between atoms: _147  and  _149
REMARK   50  A    between atoms: _149  and  _150
REMARK   51  A    between atoms: _149  and  _152
REMARK   52  A    between atoms: _152  and  _153
REMARK   53  A    between atoms: _154  and  ZN_364
REMARK   54  A    between atoms: _158  and  _160
REMARK   55  A    between atoms: _160  and  _161
REMARK   56  A    between atoms: _160  and  _163
REMARK   57  A    between atoms: _163  and  _164
REMARK   58  A    between atoms: _167  and  _169
REMARK   59  A    between atoms: _169  and  _170
REMARK   60  A    between atoms: _169  and  _172
REMARK   61  A    between atoms: _175  and  _177
REMARK   62  A    between atoms: _177  and  _178
REMARK   63  A    between atoms: _177  and  _180
REMARK   64  A    between atoms: _180  and  _181
REMARK   65  A    between atoms: _186  and  _188
REMARK   66  A    between atoms: _188  and  _189
REMARK   67  A    between atoms: _188  and  _191
REMARK   68  A    between atoms: _191  and  _192
REMARK   69  A    between atoms: _198  and  _200
REMARK   70  A    between atoms: _200  and  _201
REMARK   71  A    between atoms: _200  and  _203
REMARK   72  A    between atoms: _206  and  _208
REMARK   73  A    between atoms: _208  and  _209
REMARK   74  A    between atoms: _208  and  _211
REMARK   75  A    between atoms: _211  and  _212
REMARK   76  A    between atoms: _215  and  _217
REMARK   77  A    between atoms: _217  and  _218
REMARK   78  A    between atoms: _221  and  _223
REMARK   79  A    between atoms: _223  and  _224
REMARK   80  A    between atoms: _223  and  _226
REMARK   81  A    between atoms: _229  and  _231
REMARK   82  A    between atoms: _231  and  _232
REMARK   83  A    between atoms: _231  and  _234
REMARK   84  A    between atoms: _234  and  _235
REMARK   85  A    between atoms: _238  and  _240
REMARK   86  A    between atoms: _240  and  _241
REMARK   87  A    between atoms: _240  and  _243
REMARK   88  A    between atoms: _243  and  _244
REMARK   89  A    between atoms: _246  and  _248
REMARK   90  A    between atoms: _248  and  _249
REMARK   91  A    between atoms: _248  and  _251
REMARK   92  A    between atoms: _251  and  _252
REMARK   93  A    between atoms: _255  and  _257
REMARK   94  A    between atoms: _257  and  _258
REMARK   95  A    between atoms: _257  and  _260
REMARK   96  A    between atoms: _260  and  _261
REMARK   97  A    between atoms: _264  and  _266
REMARK   98  A    between atoms: _266  and  _267
REMARK   99  A    between atoms: _266  and  _269
REMARK  100  A    between atoms: _269  and  _270
REMARK  101  A    between atoms: _274  and  _275
REMARK  102  A    between atoms: _281  and  _282
REMARK  103  A    between atoms: _287  and  _289
REMARK  104  A    between atoms: _289  and  _290
REMARK  105  A    between atoms: _289  and  _292
REMARK  106  A    between atoms: _292  and  _293
REMARK  107  A    between atoms: _296  and  _298
REMARK  108  A    between atoms: _298  and  _299
REMARK  109  A    between atoms: _298  and  _301
REMARK  110  A    between atoms: _301  and  _302
REMARK  111  A    between atoms: _305  and  _307
REMARK  112  A    between atoms: _307  and  _308
REMARK  113  A    between atoms: _307  and  _310
REMARK  114  A    between atoms: _312  and  _314
REMARK  115  A    between atoms: _314  and  _315
REMARK  116  A    between atoms: _314  and  _317
REMARK  117  A    between atoms: _320  and  _322
REMARK  118  A    between atoms: _322  and  _323
REMARK  119  A    between atoms: _322  and  _325
REMARK  120  A    between atoms: _325  and  _326
REMARK  121  A    between atoms: _336  and  _338
REMARK  122  A    between atoms: _338  and  _339
REMARK  123  A    between atoms: _338  and  _341
REMARK  124  A    between atoms: _341  and  _342
REMARK  125  A    between atoms: _347  and  _349
REMARK  126  A    between atoms: _349  and  _350
REMARK  127  A    between atoms: _349  and  _352
REMARK  128  A    between atoms: _352  and  _353
REMARK  129  A    between atoms: _353  and  _354
REMARK  130  A    between atoms: _354  and  _355
REMARK                            x       y       z     vdW  Elec       q    Type
REMARK                         _______ _______ _______ _____ _____    ______ ____
ROOT
ATOM      1  C   ILE A   1       8.224   7.343  10.669  0.00  0.00    +0.238 C 
ATOM      2  N   GLN A   2       8.414   6.141  11.216  0.00  0.00    -0.298 N 
ATOM      3  H   GLN A   2       8.323   6.006  12.243  0.00  0.00    +0.150 HD
ATOM      4  O   ILE A   1       8.363   7.561   9.457  0.00  0.00    -0.274 OA
ENDROOT
BRANCH   1   5
ATOM      5  CA  ILE A   1       7.925   8.509  11.617  0.00  0.00    +0.145 C 
BRANCH   5   6
ATOM      6  N   ILE A   1       7.080   8.142  12.737  0.00  0.00    -0.238 NA
ATOM      7  H   ILE A   1       7.447   7.501  13.469  0.00  0.00    +0.142 HD
ENDBRANCH   5   6
BRANCH   5   8
ATOM      8  CB  ILE A   1       9.213   9.207  12.113  0.00  0.00    +0.025 C 
ATOM      9  CG2 ILE A   1       9.963   8.395  13.142  0.00  0.00    +0.002 C 
BRANCH   8  10
ATOM     10  CG1 ILE A   1      10.113   9.580  10.923  0.00  0.00    +0.002 C 
ATOM     11  CD1 ILE A   1      11.288  10.536  11.371  0.00  0.00    +0.000 C 
ENDBRANCH   8  10
ENDBRANCH   5   8
ENDBRANCH   1   5
BRANCH   2  12
ATOM     12  CA  GLN A   2       8.754   5.015  10.342  0.00  0.00    +0.137 C 
BRANCH  12  13
ATOM     13  C   GLN A   2       8.510   3.749  11.103  0.00  0.00    +0.227 C 
ATOM     14  O   GLN A   2       8.371   3.779  12.368  0.00  0.00    -0.286 OA
ENDBRANCH  12  13
BRANCH  12  15
ATOM     15  CB  GLN A   2      10.226   5.063   9.890  0.00  0.00    +0.037 C 
BRANCH  15  16
ATOM     16  CG  GLN A   2      11.210   5.055  11.065  0.00  0.00    +0.087 C 
BRANCH  16  17
ATOM     17  CD  GLN A   2      12.024   3.806  11.169  0.00  0.00    +0.219 C 
ATOM     18  OE1 GLN A   2      11.491   2.679  11.236  0.00  0.00    -0.275 OA
ATOM     19  NE2 GLN A   2      13.328   3.984  11.205  0.00  0.00    -0.329 N 
ATOM     20 HE21 GLN A   2      13.962   3.165  11.293  0.00  0.00    +0.145 HD
ATOM     21 HE22 GLN A   2      13.724   4.944  11.146  0.00  0.00    +0.145 HD
ENDBRANCH  16  17
ENDBRANCH  15  16
ENDBRANCH  12  15
ENDBRANCH   2  12
TORSDOF 9
REMARK  Name = ../refined-set-2016/4q99/4q99_pocket.pdb
REMARK  130 active torsions:
REMARK  status: ('A' for Active; 'I' for Inactive)
REMARK    1  A    between atoms: _1  and  _3
REMARK    2  A    between atoms: _3  and  _4
REMARK    3  A    between atoms: _3  and  _6
REMARK    4  A    between atoms: _6  and  _7
REMARK    5  A    between atoms: _17  and  _19
REMARK    6  A    between atoms: _19  and  _20
REMARK    7  A    between atoms: _19  and  _22
REMARK    8  A    between atoms: _22  and  _23
REMARK    9  A    between atoms: _28  and  _29
REMARK   10  A    between atoms: _31  and  _33
REMARK   11  A    between atoms: _33  and  _34
REMARK   12  A    between atoms: _33  and  _36
REMARK   13  A    between atoms: _36  and  _37
REMARK   14  A    between atoms: _39  and  _41
REMARK   15  A    between atoms: _41  and  _42
REMARK   16  A    between atoms: _41  and  _44
REMARK   17  A    between atoms: _44  and  _45
REMARK   18  A    between atoms: _50  and  _52
REMARK   19  A    between atoms: _52  and  _53
REMARK   20  A    between atoms: _52  and  _55
REMARK   21  A    between atoms: _55  and  _56
REMARK   22  A    between atoms: _61  and  _63
REMARK   23  A    between atoms: _63  and  _64
REMARK   24  A    between atoms: _63  and  _66
REMARK   25  A    between atoms: _66  and  _67
REMARK   26  A    between atoms: _70  and  _72
REMARK   27  A    between atoms: _72  and  _73
REMARK   28  A    between atoms: _72  and  _75
REMARK   29  A    between atoms: _75  and  _76
REMARK   30  A    between atoms: _76  and  _77
REMARK   31  A    between atoms: _82  and  _84
REMARK   32  A    between atoms: _95  and  _98
REMARK   33  A    between atoms: _98  and  _99
REMARK   34  A    between atoms: _107  and  _108
REMARK   35  A    between atoms: _116  and  _118
REMARK   36  A    between atoms: _118  and  _119
REMARK   37  A    between atoms: _118  and  _121
REMARK   38  A    between atoms: _121  and  _122
REMARK   39  A    between atoms: _122  and  _123
REMARK   40  A    between atoms: _126  and  _128
REMARK   41  A    between atoms: _128  and  _129
REMARK   42  A    between atoms: _128  and  _131
REMARK   43  A    between atoms: _131  and  _132
REMARK   44  A    between atoms: _137  and  _139
REMARK   45  A    between atoms: _139  and  _140
REMARK   46  A    between atoms: _139  and  _142
REMARK   47  A    between atoms: _142  and  _143
REMARK   48  A    between atoms: _143  and  _144
REMARK   49  A    between atoms: _147  and  _149
REMARK   50  A    between atoms: _149  and  _150
REMARK   51  A    between atoms: _149  and  _152
REMARK   52  A    between atoms: _152  and  _153
REMARK   53  A    between atoms: _154  and  ZN_364
REMARK   54  A    between atoms: _158  and  _160
REMARK   55  A    between atoms: _160  and  _161
REMARK   56  A    between atoms: _160  and  _163
REMARK   57  A    between atoms: _163  and  _164
REMARK   58  A    between atoms: _167  and  _169
REMARK   59  A    between atoms: _169  and  _170
REMARK   60  A    between atoms: _169  and  _172
REMARK   61  A    between atoms: _175  and  _177
REMARK   62  A    between atoms: _177  and  _178
REMARK   63  A    between atoms: _177  and  _180
REMARK   64  A    between atoms: _180  and  _181
REMARK   65  A    between atoms: _186  and  _188
REMARK   66  A    between atoms: _188  and  _189
REMARK   67  A    between atoms: _188  and  _191
REMARK   68  A    between atoms: _191  and  _192
REMARK   69  A    between atoms: _198  and  _200
REMARK   70  A    between atoms: _200  and  _201
REMARK   71  A    between atoms: _200  and  _203
REMARK   72  A    between atoms: _206  and  _208
REMARK   73  A    between atoms: _208  and  _209
REMARK   74  A    between atoms: _208  and  _211
REMARK   75  A    between atoms: _211  and  _212
REMARK   76  A    between atoms: _215  and  _217
REMARK   77  A    between atoms: _217  and  _218
REMARK   78  A    between atoms: _221  and  _223
REMARK   79  A    between atoms: _223  and  _224
REMARK   80  A    between atoms: _223  and  _226
REMARK   81  A    between atoms: _229  and  _231
REMARK   82  A    between atoms: _231  and  _232
REMARK   83  A    between atoms: _231  and  _234
REMARK   84  A    between atoms: _234  and  _235
REMARK   85  A    between atoms: _238  and  _240
REMARK   86  A    between atoms: _240  and  _241
REMARK   87  A    between atoms: _240  and  _243
REMARK   88  A    between atoms: _243  and  _244
REMARK   89  A    between atoms: _246  and  _248
REMARK   90  A    between atoms: _248  and  _249
REMARK   91  A    between atoms: _248  and  _251
REMARK   92  A    between atoms: _251  and  _252
REMARK   93  A    between atoms: _255  and  _257
REMARK   94  A    between atoms: _257  and  _258
REMARK   95  A    between atoms: _257  and  _260
REMARK   96  A    between atoms: _260  and  _261
REMARK   97  A    between atoms: _264  and  _266
REMARK   98  A    between atoms: _266  and  _267
REMARK   99  A    between atoms: _266  and  _269
REMARK  100  A    between atoms: _269  and  _270
REMARK  101  A    between atoms: _274  and  _275
REMARK  102  A    between atoms: _281  and  _282
REMARK  103  A    between atoms: _287  and  _289
REMARK  104  A    between atoms: _289  and  _290
REMARK  105  A    between atoms: _289  and  _292
REMARK  106  A    between atoms: _292  and  _293
REMARK  107  A    between atoms: _296  and  _298
REMARK  108  A    between atoms: _298  and  _299
REMARK  109  A    between atoms: _298  and  _301
REMARK  110  A    between atoms: _301  and  _302
REMARK  111  A    between atoms: _305  and  _307
REMARK  112  A    between atoms: _307  and  _308
REMARK  113  A    between atoms: _307  and  _310
REMARK  114  A    between atoms: _312  and  _314
REMARK  115  A    between atoms: _314  and  _315
REMARK  116  A    between atoms: _314  and  _317
REMARK  117  A    between atoms: _320  and  _322
REMARK  118  A    between atoms: _322  and  _323
REMARK  119  A    between atoms: _322  and  _325
REMARK  120  A    between atoms: _325  and  _326
REMARK  121  A    between atoms: _336  and  _338
REMARK  122  A    between atoms: _338  and  _339
REMARK  123  A    between atoms: _338  and  _341
REMARK  124  A    between atoms: _341  and  _342
REMARK  125  A    between atoms: _347  and  _349
REMARK  126  A    between atoms: _349  and  _350
REMARK  127  A    between atoms: _349  and  _352
REMARK  128  A    between atoms: _352  and  _353
REMARK  129  A    between atoms: _353  and  _354
REMARK  130  A    between atoms: _354  and  _355
REMARK                            x       y       z     vdW  Elec       q    Type
REMARK                         _______ _______ _______ _____ _____    ______ ____
ROOT
ATOM      1  N   UNK A   3      13.073  -2.284  16.547  0.00  0.00    +0.000 N 
ATOM      2  C   UNK A   3      13.366  -3.240  17.423  0.00  0.00    +0.000 A 
ATOM      3  N   UNK A   3      12.248  -3.702  17.973  0.00  0.00    +0.000 NA
ATOM      4  C   UNK A   3      11.156  -3.046  17.417  0.00  0.00    +0.000 A 
ATOM      5  C   UNK A   3      11.660  -2.164  16.522  0.00  0.00    +0.000 A 
ENDROOT
BRANCH   1  19
ATOM      6  C   UNK A   1      10.882  -1.502  10.325  0.00  0.00    +0.000 C 
ATOM      7  C   UNK A   1      10.792  -2.771  11.132  0.00  0.00    +0.000 C 
ATOM      8  O   UNK A   1      10.168  -2.803  12.171  0.00  0.00    +0.000 OA
ATOM      9  N   LEU A   2      11.484  -3.806  10.657  0.00  0.00    +0.000 N 
ATOM     10  CA  LEU A   2      11.512  -5.092  11.309  0.00  0.00    +0.000 C 
ATOM     11  C   LEU A   2      12.952  -5.547  11.530  0.00  0.00    +0.000 C 
ATOM     12  N   UNK A   3      13.062  -6.506  12.436  0.00  0.00    +0.000 N 
ATOM     13  H   UNK A   3      12.238  -6.706  13.038  0.00  0.00    +0.000 HD
ATOM     14  C   UNK A   3      14.268  -7.298  12.641  0.00  0.00    +0.000 C 
ATOM     15  C   UNK A   3      14.903  -7.016  14.047  0.00  0.00    +0.000 C 
ATOM     16  C   UNK A   3      15.204  -5.583  14.330  0.00  0.00    +0.000 A 
ATOM     17  C   UNK A   3      14.423  -4.524  14.655  0.00  0.00    +0.000 A 
ATOM     18  N   UNK A   3      15.249  -3.412  14.730  0.00  0.00    +0.000 N 
ATOM     19 ZN   UNK A   3      14.586  -1.581  15.336  0.00  0.00    +0.000 Zn
ATOM     20  N   UNK A   3      13.782  -0.783  13.637  0.00  0.00    +0.000 N 
ATOM     21  C   UNK A   3      13.286   0.427  13.448  0.00  0.00    +0.000 A 
ATOM     22  N   UNK A   3      12.741   0.503  12.254  0.00  0.00    +0.000 NA
ATOM     23  C   UNK A   3      12.931  -0.708  11.620  0.00  0.00    +0.000 A 
ATOM     24  C   UNK A   3      13.532  -1.519  12.512  0.00  0.00    +0.000 A 
ATOM     25  C   UNK A   3      16.493  -3.803  14.439  0.00  0.00    +0.000 A 
ATOM     26  N   UNK A   3      16.475  -5.092  14.083  0.00  0.00    +0.000 NA
ATOM     27  O   LEU A   2      13.881  -5.082  10.867  0.00  0.00    +0.000 OA
ATOM     28  H   LEU A   2      12.027  -3.681   9.779  0.00  0.00    +0.000 HD
ATOM     29  C   UNK A   3      12.355  -0.985  10.260  0.00  0.00    +0.000 C 
BRANCH   6  30
ATOM     30  N   UNK A   1       9.984  -0.534  10.917  0.00  0.00    +0.000 NA
ATOM     31  H   UNK A   1       9.763  -0.611  11.930  0.00  0.00    +0.000 HD
ENDBRANCH   6  30
BRANCH  14  32
ATOM     32  C   UNK A   3      13.839  -8.771  12.570  0.00  0.00    +0.000 C 
ATOM     33  O   UNK A   3      12.804  -9.119  13.122  0.00  0.00    +0.000 OA
ENDBRANCH  14  32
BRANCH  10  34
ATOM     34  CB  LEU A   2      10.751  -6.176  10.511  0.00  0.00    +0.000 C 
BRANCH  34  35
ATOM     35  CG  LEU A   2       9.364  -5.858  10.168  0.00  0.00    +0.000 A 
ATOM     36  CD2 LEU A   2       8.328  -6.534  10.844  0.00  0.00    +0.000 A 
ATOM     37  CE2 LEU A   2       6.980  -6.299  10.508  0.00  0.00    +0.000 A 
ATOM     38  CZ  LEU A   2       6.696  -5.456   9.395  0.00  0.00    +0.000 A 
ATOM     39  CE1 LEU A   2       7.706  -4.837   8.701  0.00  0.00    +0.000 A 
ATOM     40  CD1 LEU A   2       9.057  -5.037   9.073  0.00  0.00    +0.000 A 
ENDBRANCH  34  35
ENDBRANCH  10  34
ENDBRANCH   1  19
BRANCH   5  41
ATOM     41  C   UNK A   3      10.941  -1.194  15.636  0.00  0.00    +0.000 C 
BRANCH  41  42
ATOM     42  C   UNK A   3       9.416  -1.462  15.590  0.00  0.00    +0.000 C 
BRANCH  42  43
ATOM     43  C   UNK A   3       8.733  -0.358  14.898  0.00  0.00    +0.000 C 
ATOM     44  N   LEU A   2       7.677   0.158  15.544  0.00  0.00    +0.000 N 
ATOM     45  H   LEU A   2       7.327  -0.329  16.394  0.00  0.00    +0.000 HD
ATOM     46  O   UNK A   3       9.137   0.055  13.790  0.00  0.00    +0.000 OA
BRANCH  44  47
ATOM     47  CA  LEU A   2       6.961   1.438  15.083  0.00  0.00    +0.000 C 
BRANCH  47  48
ATOM     48  C   LEU A   2       7.551   2.593  15.883  0.00  0.00    +0.000 C 
ATOM     49  O   LEU A   2       7.451   2.592  17.124  0.00  0.00    +0.000 OA
ATOM     50  N   UNK A   3       8.301   3.441  15.154  0.00  0.00    +0.000 N 
ATOM     51  H   UNK A   3       8.287   3.381  14.116  0.00  0.00    +0.000 HD
BRANCH  50  52
ATOM     52  C   UNK A   3       9.160   4.477  15.832  0.00  0.00    +0.000 C 
BRANCH  52  53
ATOM     53  C   UNK A   3       8.422   5.815  15.851  0.00  0.00    +0.000 C 
ATOM     54  N   HIS A   4       8.348   6.390  17.051  0.00  0.00    +0.000 N 
ATOM     55  H   HIS A   4       8.773   5.925  17.878  0.00  0.00    +0.000 HD
ATOM     56  O   UNK A   3       7.949   6.292  14.805  0.00  0.00    +0.000 OA
BRANCH  54  57
ATOM     57  CA  HIS A   4       7.689   7.638  17.198  0.00  0.00    +0.000 C 
BRANCH  57  58
ATOM     58  C   HIS A   4       8.547   8.634  17.944  0.00  0.00    +0.000 C 
ATOM     59  O   HIS A   4       9.207   8.267  18.874  0.00  0.00    +0.000 OA
ENDBRANCH  57  58
BRANCH  57  60
ATOM     60  CB  HIS A   4       6.342   7.501  18.009  0.00  0.00    +0.000 C 
BRANCH  60  61
ATOM     61  CG  HIS A   4       5.440   6.374  17.620  0.00  0.00    +0.000 A 
ATOM     62  ND1 HIS A   4       5.800   5.052  17.886  0.00  0.00    +0.000 NA
ATOM     63  CE1 HIS A   4       4.827   4.262  17.445  0.00  0.00    +0.000 A 
ATOM     64  NE2 HIS A   4       3.871   5.001  16.885  0.00  0.00    +0.000 NA
ATOM     65  CD2 HIS A   4       4.211   6.334  17.006  0.00  0.00    +0.000 A 
ENDBRANCH  60  61
ENDBRANCH  57  60
ENDBRANCH  54  57
ENDBRANCH  52  53
BRANCH  52  66
ATOM     66  C   UNK A   3      10.452   4.649  15.028  0.00  0.00    +0.000 C 
ATOM     67  C   UNK A   3      11.331   5.695  15.654  0.00  0.00    +0.000 C 
ATOM     68  C   UNK A   3      11.148   3.259  14.815  0.00  0.00    +0.000 C 
ENDBRANCH  52  66
ENDBRANCH  50  52
ENDBRANCH  47  48
BRANCH  47  69
ATOM     69  CB  LEU A   2       5.421   1.263  15.315  0.00  0.00    +0.000 C 
BRANCH  69  70
ATOM     70  CG  LEU A   2       4.779   0.182  14.411  0.00  0.00    +0.000 C 
ATOM     71  CD2 LEU A   2       3.821  -0.609  15.295  0.00  0.00    +0.000 C 
ATOM     72  CD1 LEU A   2       4.041   0.921  13.285  0.00  0.00    +0.000 C 
ENDBRANCH  69  70
ENDBRANCH  47  69
ENDBRANCH  44  47
ENDBRANCH  42  43
BRANCH  42  73
ATOM     73  N   UNK A   3       9.176  -2.689  14.808  0.00  0.00    +0.000 NA
ATOM     74  H   UNK A   1       9.493  -2.720  13.818  0.00  0.00    +0.000 HD
ENDBRANCH  42  73
ENDBRANCH  41  42
ENDBRANCH   5  41
TORSDOF 20
REMARK  Name = ../refined-set-2016/4q99/4q99_pocket.pdb
REMARK  130 active torsions:
REMARK  status: ('A' for Active; 'I' for Inactive)
REMARK    1  A    between atoms: _1  and  _3
REMARK    2  A    between atoms: _3  and  _4
REMARK    3  A    between atoms: _3  and  _6
REMARK    4  A    between atoms: _6  and  _7
REMARK    5  A    between atoms: _17  and  _19
REMARK    6  A    between atoms: _19  and  _20
REMARK    7  A    between atoms: _19  and  _22
REMARK    8  A    between atoms: _22  and  _23
REMARK    9  A    between atoms: _28  and  _29
REMARK   10  A    between atoms: _31  and  _33
REMARK   11  A    between atoms: _33  and  _34
REMARK   12  A    between atoms: _33  and  _36
REMARK   13  A    between atoms: _36  and  _37
REMARK   14  A    between atoms: _39  and  _41
REMARK   15  A    between atoms: _41  and  _42
REMARK   16  A    between atoms: _41  and  _44
REMARK   17  A    between atoms: _44  and  _45
REMARK   18  A    between atoms: _50  and  _52
REMARK   19  A    between atoms: _52  and  _53
REMARK   20  A    between atoms: _52  and  _55
REMARK   21  A    between atoms: _55  and  _56
REMARK   22  A    between atoms: _61  and  _63
REMARK   23  A    between atoms: _63  and  _64
REMARK   24  A    between atoms: _63  and  _66
REMARK   25  A    between atoms: _66  and  _67
REMARK   26  A    between atoms: _70  and  _72
REMARK   27  A    between atoms: _72  and  _73
REMARK   28  A    between atoms: _72  and  _75
REMARK   29  A    between atoms: _75  and  _76
REMARK   30  A    between atoms: _76  and  _77
REMARK   31  A    between atoms: _82  and  _84
REMARK   32  A    between atoms: _95  and  _98
REMARK   33  A    between atoms: _98  and  _99
REMARK   34  A    between atoms: _107  and  _108
REMARK   35  A    between atoms: _116  and  _118
REMARK   36  A    between atoms: _118  and  _119
REMARK   37  A    between atoms: _118  and  _121
REMARK   38  A    between atoms: _121  and  _122
REMARK   39  A    between atoms: _122  and  _123
REMARK   40  A    between atoms: _126  and  _128
REMARK   41  A    between atoms: _128  and  _129
REMARK   42  A    between atoms: _128  and  _131
REMARK   43  A    between atoms: _131  and  _132
REMARK   44  A    between atoms: _137  and  _139
REMARK   45  A    between atoms: _139  and  _140
REMARK   46  A    between atoms: _139  and  _142
REMARK   47  A    between atoms: _142  and  _143
REMARK   48  A    between atoms: _143  and  _144
REMARK   49  A    between atoms: _147  and  _149
REMARK   50  A    between atoms: _149  and  _150
REMARK   51  A    between atoms: _149  and  _152
REMARK   52  A    between atoms: _152  and  _153
REMARK   53  A    between atoms: _154  and  ZN_364
REMARK   54  A    between atoms: _158  and  _160
REMARK   55  A    between atoms: _160  and  _161
REMARK   56  A    between atoms: _160  and  _163
REMARK   57  A    between atoms: _163  and  _164
REMARK   58  A    between atoms: _167  and  _169
REMARK   59  A    between atoms: _169  and  _170
REMARK   60  A    between atoms: _169  and  _172
REMARK   61  A    between atoms: _175  and  _177
REMARK   62  A    between atoms: _177  and  _178
REMARK   63  A    between atoms: _177  and  _180
REMARK   64  A    between atoms: _180  and  _181
REMARK   65  A    between atoms: _186  and  _188
REMARK   66  A    between atoms: _188  and  _189
REMARK   67  A    between atoms: _188  and  _191
REMARK   68  A    between atoms: _191  and  _192
REMARK   69  A    between atoms: _198  and  _200
REMARK   70  A    between atoms: _200  and  _201
REMARK   71  A    between atoms: _200  and  _203
REMARK   72  A    between atoms: _206  and  _208
REMARK   73  A    between atoms: _208  and  _209
REMARK   74  A    between atoms: _208  and  _211
REMARK   75  A    between atoms: _211  and  _212
REMARK   76  A    between atoms: _215  and  _217
REMARK   77  A    between atoms: _217  and  _218
REMARK   78  A    between atoms: _221  and  _223
REMARK   79  A    between atoms: _223  and  _224
REMARK   80  A    between atoms: _223  and  _226
REMARK   81  A    between atoms: _229  and  _231
REMARK   82  A    between atoms: _231  and  _232
REMARK   83  A    between atoms: _231  and  _234
REMARK   84  A    between atoms: _234  and  _235
REMARK   85  A    between atoms: _238  and  _240
REMARK   86  A    between atoms: _240  and  _241
REMARK   87  A    between atoms: _240  and  _243
REMARK   88  A    between atoms: _243  and  _244
REMARK   89  A    between atoms: _246  and  _248
REMARK   90  A    between atoms: _248  and  _249
REMARK   91  A    between atoms: _248  and  _251
REMARK   92  A    between atoms: _251  and  _252
REMARK   93  A    between atoms: _255  and  _257
REMARK   94  A    between atoms: _257  and  _258
REMARK   95  A    between atoms: _257  and  _260
REMARK   96  A    between atoms: _260  and  _261
REMARK   97  A    between atoms: _264  and  _266
REMARK   98  A    between atoms: _266  and  _267
REMARK   99  A    between atoms: _266  and  _269
REMARK  100  A    between atoms: _269  and  _270
REMARK  101  A    between atoms: _274  and  _275
REMARK  102  A    between atoms: _281  and  _282
REMARK  103  A    between atoms: _287  and  _289
REMARK  104  A    between atoms: _289  and  _290
REMARK  105  A    between atoms: _289  and  _292
REMARK  106  A    between atoms: _292  and  _293
REMARK  107  A    between atoms: _296  and  _298
REMARK  108  A    between atoms: _298  and  _299
REMARK  109  A    between atoms: _298  and  _301
REMARK  110  A    between atoms: _301  and  _302
REMARK  111  A    between atoms: _305  and  _307
REMARK  112  A    between atoms: _307  and  _308
REMARK  113  A    between atoms: _307  and  _310
REMARK  114  A    between atoms: _312  and  _314
REMARK  115  A    between atoms: _314  and  _315
REMARK  116  A    between atoms: _314  and  _317
REMARK  117  A    between atoms: _320  and  _322
REMARK  118  A    between atoms: _322  and  _323
REMARK  119  A    between atoms: _322  and  _325
REMARK  120  A    between atoms: _325  and  _326
REMARK  121  A    between atoms: _336  and  _338
REMARK  122  A    between atoms: _338  and  _339
REMARK  123  A    between atoms: _338  and  _341
REMARK  124  A    between atoms: _341  and  _342
REMARK  125  A    between atoms: _347  and  _349
REMARK  126  A    between atoms: _349  and  _350
REMARK  127  A    between atoms: _349  and  _352
REMARK  128  A    between atoms: _352  and  _353
REMARK  129  A    between atoms: _353  and  _354
REMARK  130  A    between atoms: _354  and  _355
REMARK                            x       y       z     vdW  Elec       q    Type
REMARK                         _______ _______ _______ _____ _____    ______ ____
ROOT
ATOM      1  C   GLU A   1      15.088  -8.697  21.053  0.00  0.00    +0.238 C 
ATOM      2  O   GLU A   1      15.854  -9.344  21.836  0.00  0.00    -0.274 OA
ATOM      3  N   HIS A   2      13.894  -8.217  21.482  0.00  0.00    -0.298 N 
ATOM      4  H   HIS A   2      13.306  -7.603  20.882  0.00  0.00    +0.150 HD
ENDROOT
BRANCH   1   5
ATOM      5  CA  GLU A   1      15.502  -8.536  19.613  0.00  0.00    +0.145 C 
BRANCH   5   6
ATOM      6  N   GLU A   1      14.433  -9.237  18.775  0.00  0.00    -0.238 NA
ATOM      7  H   GLU A   1      13.574  -8.716  18.506  0.00  0.00    +0.142 HD
ENDBRANCH   5   6
BRANCH   5   8
ATOM      8  CB  GLU A   1      15.496  -7.080  19.161  0.00  0.00    +0.038 C 
BRANCH   8   9
ATOM      9  CG  GLU A   1      16.002  -7.063  17.683  0.00  0.00    +0.116 C 
BRANCH   9  10
ATOM     10  CD  GLU A   1      16.672  -5.793  17.366  0.00  0.00    +0.365 C 
ATOM     11  OE2 GLU A   1      16.025  -4.750  17.537  0.00  0.00    -0.246 OA
ATOM     12  OE1 GLU A   1      17.802  -5.788  16.893  0.00  0.00    -0.246 OA
ENDBRANCH   9  10
ENDBRANCH   8   9
ENDBRANCH   5   8
ENDBRANCH   1   5
BRANCH   3  13
ATOM     13  CA  HIS A   2      13.470  -8.606  22.837  0.00  0.00    +0.143 C 
BRANCH  13  14
ATOM     14  C   HIS A   2      13.139 -10.059  22.842  0.00  0.00    +0.227 C 
ATOM     15  O   HIS A   2      12.767 -10.644  21.801  0.00  0.00    -0.286 OA
ENDBRANCH  13  14
BRANCH  13  16
ATOM     16  CB  HIS A   2      12.223  -7.711  23.185  0.00  0.00    +0.075 C 
BRANCH  16  17
ATOM     17  CG  HIS A   2      12.592  -6.262  23.302  0.00  0.00    +0.082 A 
ATOM     18  CD2 HIS A   2      13.041  -5.582  24.391  0.00  0.00    +0.115 A 
ATOM     19  NE2 HIS A   2      13.302  -4.304  23.994  0.00  0.00    -0.221 NA
ATOM     20  CE1 HIS A   2      13.033  -4.186  22.703  0.00  0.00    +0.199 A 
ATOM     21  ND1 HIS A   2      12.556  -5.359  22.268  0.00  0.00    -0.227 NA
ENDBRANCH  16  17
ENDBRANCH  13  16
ENDBRANCH   3  13
TORSDOF 9
REMARK  Name = ../refined-set-2016/4q99/4q99_pocket.pdb
REMARK  130 active torsions:
REMARK  status: ('A' for Active; 'I' for Inactive)
REMARK    1  A    between atoms: _1  and  _3
REMARK    2  A    between atoms: _3  and  _4
REMARK    3  A    between atoms: _3  and  _6
REMARK    4  A    between atoms: _6  and  _7
REMARK    5  A    between atoms: _17  and  _19
REMARK    6  A    between atoms: _19  and  _20
REMARK    7  A    between atoms: _19  and  _22
REMARK    8  A    between atoms: _22  and  _23
REMARK    9  A    between atoms: _28  and  _29
REMARK   10  A    between atoms: _31  and  _33
REMARK   11  A    between atoms: _33  and  _34
REMARK   12  A    between atoms: _33  and  _36
REMARK   13  A    between atoms: _36  and  _37
REMARK   14  A    between atoms: _39  and  _41
REMARK   15  A    between atoms: _41  and  _42
REMARK   16  A    between atoms: _41  and  _44
REMARK   17  A    between atoms: _44  and  _45
REMARK   18  A    between atoms: _50  and  _52
REMARK   19  A    between atoms: _52  and  _53
REMARK   20  A    between atoms: _52  and  _55
REMARK   21  A    between atoms: _55  and  _56
REMARK   22  A    between atoms: _61  and  _63
REMARK   23  A    between atoms: _63  and  _64
REMARK   24  A    between atoms: _63  and  _66
REMARK   25  A    between atoms: _66  and  _67
REMARK   26  A    between atoms: _70  and  _72
REMARK   27  A    between atoms: _72  and  _73
REMARK   28  A    between atoms: _72  and  _75
REMARK   29  A    between atoms: _75  and  _76
REMARK   30  A    between atoms: _76  and  _77
REMARK   31  A    between atoms: _82  and  _84
REMARK   32  A    between atoms: _95  and  _98
REMARK   33  A    between atoms: _98  and  _99
REMARK   34  A    between atoms: _107  and  _108
REMARK   35  A    between atoms: _116  and  _118
REMARK   36  A    between atoms: _118  and  _119
REMARK   37  A    between atoms: _118  and  _121
REMARK   38  A    between atoms: _121  and  _122
REMARK   39  A    between atoms: _122  and  _123
REMARK   40  A    between atoms: _126  and  _128
REMARK   41  A    between atoms: _128  and  _129
REMARK   42  A    between atoms: _128  and  _131
REMARK   43  A    between atoms: _131  and  _132
REMARK   44  A    between atoms: _137  and  _139
REMARK   45  A    between atoms: _139  and  _140
REMARK   46  A    between atoms: _139  and  _142
REMARK   47  A    between atoms: _142  and  _143
REMARK   48  A    between atoms: _143  and  _144
REMARK   49  A    between atoms: _147  and  _149
REMARK   50  A    between atoms: _149  and  _150
REMARK   51  A    between atoms: _149  and  _152
REMARK   52  A    between atoms: _152  and  _153
REMARK   53  A    between atoms: _154  and  ZN_364
REMARK   54  A    between atoms: _158  and  _160
REMARK   55  A    between atoms: _160  and  _161
REMARK   56  A    between atoms: _160  and  _163
REMARK   57  A    between atoms: _163  and  _164
REMARK   58  A    between atoms: _167  and  _169
REMARK   59  A    between atoms: _169  and  _170
REMARK   60  A    between atoms: _169  and  _172
REMARK   61  A    between atoms: _175  and  _177
REMARK   62  A    between atoms: _177  and  _178
REMARK   63  A    between atoms: _177  and  _180
REMARK   64  A    between atoms: _180  and  _181
REMARK   65  A    between atoms: _186  and  _188
REMARK   66  A    between atoms: _188  and  _189
REMARK   67  A    between atoms: _188  and  _191
REMARK   68  A    between atoms: _191  and  _192
REMARK   69  A    between atoms: _198  and  _200
REMARK   70  A    between atoms: _200  and  _201
REMARK   71  A    between atoms: _200  and  _203
REMARK   72  A    between atoms: _206  and  _208
REMARK   73  A    between atoms: _208  and  _209
REMARK   74  A    between atoms: _208  and  _211
REMARK   75  A    between atoms: _211  and  _212
REMARK   76  A    between atoms: _215  and  _217
REMARK   77  A    between atoms: _217  and  _218
REMARK   78  A    between atoms: _221  and  _223
REMARK   79  A    between atoms: _223  and  _224
REMARK   80  A    between atoms: _223  and  _226
REMARK   81  A    between atoms: _229  and  _231
REMARK   82  A    between atoms: _231  and  _232
REMARK   83  A    between atoms: _231  and  _234
REMARK   84  A    between atoms: _234  and  _235
REMARK   85  A    between atoms: _238  and  _240
REMARK   86  A    between atoms: _240  and  _241
REMARK   87  A    between atoms: _240  and  _243
REMARK   88  A    between atoms: _243  and  _244
REMARK   89  A    between atoms: _246  and  _248
REMARK   90  A    between atoms: _248  and  _249
REMARK   91  A    between atoms: _248  and  _251
REMARK   92  A    between atoms: _251  and  _252
REMARK   93  A    between atoms: _255  and  _257
REMARK   94  A    between atoms: _257  and  _258
REMARK   95  A    between atoms: _257  and  _260
REMARK   96  A    between atoms: _260  and  _261
REMARK   97  A    between atoms: _264  and  _266
REMARK   98  A    between atoms: _266  and  _267
REMARK   99  A    between atoms: _266  and  _269
REMARK  100  A    between atoms: _269  and  _270
REMARK  101  A    between atoms: _274  and  _275
REMARK  102  A    between atoms: _281  and  _282
REMARK  103  A    between atoms: _287  and  _289
REMARK  104  A    between atoms: _289  and  _290
REMARK  105  A    between atoms: _289  and  _292
REMARK  106  A    between atoms: _292  and  _293
REMARK  107  A    between atoms: _296  and  _298
REMARK  108  A    between atoms: _298  and  _299
REMARK  109  A    between atoms: _298  and  _301
REMARK  110  A    between atoms: _301  and  _302
REMARK  111  A    between atoms: _305  and  _307
REMARK  112  A    between atoms: _307  and  _308
REMARK  113  A    between atoms: _307  and  _310
REMARK  114  A    between atoms: _312  and  _314
REMARK  115  A    between atoms: _314  and  _315
REMARK  116  A    between atoms: _314  and  _317
REMARK  117  A    between atoms: _320  and  _322
REMARK  118  A    between atoms: _322  and  _323
REMARK  119  A    between atoms: _322  and  _325
REMARK  120  A    between atoms: _325  and  _326
REMARK  121  A    between atoms: _336  and  _338
REMARK  122  A    between atoms: _338  and  _339
REMARK  123  A    between atoms: _338  and  _341
REMARK  124  A    between atoms: _341  and  _342
REMARK  125  A    between atoms: _347  and  _349
REMARK  126  A    between atoms: _349  and  _350
REMARK  127  A    between atoms: _349  and  _352
REMARK  128  A    between atoms: _352  and  _353
REMARK  129  A    between atoms: _353  and  _354
REMARK  130  A    between atoms: _354  and  _355
REMARK                            x       y       z     vdW  Elec       q    Type
REMARK                         _______ _______ _______ _____ _____    ______ ____
ROOT
ATOM      1  CA  GLU A   1      10.021  -8.051  15.687  0.00  0.00    +0.134 C 
ENDROOT
BRANCH   1   2
ATOM      2  N   GLU A   1      10.544  -9.106  14.835  0.00  0.00    -0.239 NA
ATOM      3  H   GLU A   1      11.216  -8.855  14.082  0.00  0.00    +0.142 HD
ENDBRANCH   1   2
BRANCH   1   4
ATOM      4  C   GLU A   1       9.825  -6.792  14.880  0.00  0.00    +0.224 C 
ATOM      5  O   GLU A   1      10.778  -6.379  14.172  0.00  0.00    -0.287 OA
ENDBRANCH   1   4
BRANCH   1   6
ATOM      6  CB  GLU A   1      10.981  -7.853  16.856  0.00  0.00    +0.037 C 
BRANCH   6   7
ATOM      7  CG  GLU A   1      10.521  -6.830  17.916  0.00  0.00    +0.116 C 
BRANCH   7   8
ATOM      8  CD  GLU A   1      11.440  -6.768  19.093  0.00  0.00    +0.365 C 
ATOM      9  OE2 GLU A   1      11.619  -5.688  19.692  0.00  0.00    -0.246 OA
ATOM     10  OE1 GLU A   1      12.007  -7.818  19.449  0.00  0.00    -0.246 OA
ENDBRANCH   7   8
ENDBRANCH   6   7
ENDBRANCH   1   6
TORSDOF 5
REMARK  Name = ../refined-set-2016/4q99/4q99_pocket.pdb
REMARK  130 active torsions:
REMARK  status: ('A' for Active; 'I' for Inactive)
REMARK    1  A    between atoms: _1  and  _3
REMARK    2  A    between atoms: _3  and  _4
REMARK    3  A    between atoms: _3  and  _6
REMARK    4  A    between atoms: _6  and  _7
REMARK    5  A    between atoms: _17  and  _19
REMARK    6  A    between atoms: _19  and  _20
REMARK    7  A    between atoms: _19  and  _22
REMARK    8  A    between atoms: _22  and  _23
REMARK    9  A    between atoms: _28  and  _29
REMARK   10  A    between atoms: _31  and  _33
REMARK   11  A    between atoms: _33  and  _34
REMARK   12  A    between atoms: _33  and  _36
REMARK   13  A    between atoms: _36  and  _37
REMARK   14  A    between atoms: _39  and  _41
REMARK   15  A    between atoms: _41  and  _42
REMARK   16  A    between atoms: _41  and  _44
REMARK   17  A    between atoms: _44  and  _45
REMARK   18  A    between atoms: _50  and  _52
REMARK   19  A    between atoms: _52  and  _53
REMARK   20  A    between atoms: _52  and  _55
REMARK   21  A    between atoms: _55  and  _56
REMARK   22  A    between atoms: _61  and  _63
REMARK   23  A    between atoms: _63  and  _64
REMARK   24  A    between atoms: _63  and  _66
REMARK   25  A    between atoms: _66  and  _67
REMARK   26  A    between atoms: _70  and  _72
REMARK   27  A    between atoms: _72  and  _73
REMARK   28  A    between atoms: _72  and  _75
REMARK   29  A    between atoms: _75  and  _76
REMARK   30  A    between atoms: _76  and  _77
REMARK   31  A    between atoms: _82  and  _84
REMARK   32  A    between atoms: _95  and  _98
REMARK   33  A    between atoms: _98  and  _99
REMARK   34  A    between atoms: _107  and  _108
REMARK   35  A    between atoms: _116  and  _118
REMARK   36  A    between atoms: _118  and  _119
REMARK   37  A    between atoms: _118  and  _121
REMARK   38  A    between atoms: _121  and  _122
REMARK   39  A    between atoms: _122  and  _123
REMARK   40  A    between atoms: _126  and  _128
REMARK   41  A    between atoms: _128  and  _129
REMARK   42  A    between atoms: _128  and  _131
REMARK   43  A    between atoms: _131  and  _132
REMARK   44  A    between atoms: _137  and  _139
REMARK   45  A    between atoms: _139  and  _140
REMARK   46  A    between atoms: _139  and  _142
REMARK   47  A    between atoms: _142  and  _143
REMARK   48  A    between atoms: _143  and  _144
REMARK   49  A    between atoms: _147  and  _149
REMARK   50  A    between atoms: _149  and  _150
REMARK   51  A    between atoms: _149  and  _152
REMARK   52  A    between atoms: _152  and  _153
REMARK   53  A    between atoms: _154  and  ZN_364
REMARK   54  A    between atoms: _158  and  _160
REMARK   55  A    between atoms: _160  and  _161
REMARK   56  A    between atoms: _160  and  _163
REMARK   57  A    between atoms: _163  and  _164
REMARK   58  A    between atoms: _167  and  _169
REMARK   59  A    between atoms: _169  and  _170
REMARK   60  A    between atoms: _169  and  _172
REMARK   61  A    between atoms: _175  and  _177
REMARK   62  A    between atoms: _177  and  _178
REMARK   63  A    between atoms: _177  and  _180
REMARK   64  A    between atoms: _180  and  _181
REMARK   65  A    between atoms: _186  and  _188
REMARK   66  A    between atoms: _188  and  _189
REMARK   67  A    between atoms: _188  and  _191
REMARK   68  A    between atoms: _191  and  _192
REMARK   69  A    between atoms: _198  and  _200
REMARK   70  A    between atoms: _200  and  _201
REMARK   71  A    between atoms: _200  and  _203
REMARK   72  A    between atoms: _206  and  _208
REMARK   73  A    between atoms: _208  and  _209
REMARK   74  A    between atoms: _208  and  _211
REMARK   75  A    between atoms: _211  and  _212
REMARK   76  A    between atoms: _215  and  _217
REMARK   77  A    between atoms: _217  and  _218
REMARK   78  A    between atoms: _221  and  _223
REMARK   79  A    between atoms: _223  and  _224
REMARK   80  A    between atoms: _223  and  _226
REMARK   81  A    between atoms: _229  and  _231
REMARK   82  A    between atoms: _231  and  _232
REMARK   83  A    between atoms: _231  and  _234
REMARK   84  A    between atoms: _234  and  _235
REMARK   85  A    between atoms: _238  and  _240
REMARK   86  A    between atoms: _240  and  _241
REMARK   87  A    between atoms: _240  and  _243
REMARK   88  A    between atoms: _243  and  _244
REMARK   89  A    between atoms: _246  and  _248
REMARK   90  A    between atoms: _248  and  _249
REMARK   91  A    between atoms: _248  and  _251
REMARK   92  A    between atoms: _251  and  _252
REMARK   93  A    between atoms: _255  and  _257
REMARK   94  A    between atoms: _257  and  _258
REMARK   95  A    between atoms: _257  and  _260
REMARK   96  A    between atoms: _260  and  _261
REMARK   97  A    between atoms: _264  and  _266
REMARK   98  A    between atoms: _266  and  _267
REMARK   99  A    between atoms: _266  and  _269
REMARK  100  A    between atoms: _269  and  _270
REMARK  101  A    between atoms: _274  and  _275
REMARK  102  A    between atoms: _281  and  _282
REMARK  103  A    between atoms: _287  and  _289
REMARK  104  A    between atoms: _289  and  _290
REMARK  105  A    between atoms: _289  and  _292
REMARK  106  A    between atoms: _292  and  _293
REMARK  107  A    between atoms: _296  and  _298
REMARK  108  A    between atoms: _298  and  _299
REMARK  109  A    between atoms: _298  and  _301
REMARK  110  A    between atoms: _301  and  _302
REMARK  111  A    between atoms: _305  and  _307
REMARK  112  A    between atoms: _307  and  _308
REMARK  113  A    between atoms: _307  and  _310
REMARK  114  A    between atoms: _312  and  _314
REMARK  115  A    between atoms: _314  and  _315
REMARK  116  A    between atoms: _314  and  _317
REMARK  117  A    between atoms: _320  and  _322
REMARK  118  A    between atoms: _322  and  _323
REMARK  119  A    between atoms: _322  and  _325
REMARK  120  A    between atoms: _325  and  _326
REMARK  121  A    between atoms: _336  and  _338
REMARK  122  A    between atoms: _338  and  _339
REMARK  123  A    between atoms: _338  and  _341
REMARK  124  A    between atoms: _341  and  _342
REMARK  125  A    between atoms: _347  and  _349
REMARK  126  A    between atoms: _349  and  _350
REMARK  127  A    between atoms: _349  and  _352
REMARK  128  A    between atoms: _352  and  _353
REMARK  129  A    between atoms: _353  and  _354
REMARK  130  A    between atoms: _354  and  _355
REMARK                            x       y       z     vdW  Elec       q    Type
REMARK                         _______ _______ _______ _____ _____    ______ ____
ROOT
ATOM      1  CB  PHE A   1      13.127  12.453  13.919  0.00  0.00    +0.051 C 
ENDROOT
BRANCH   1   2
ATOM      2  CG  PHE A   1      13.810  11.147  14.149  0.00  0.00    -0.020 A 
ATOM      3  CD2 PHE A   1      13.207  10.082  14.849  0.00  0.00    -0.004 A 
ATOM      4  CE2 PHE A   1      13.871   8.901  15.013  0.00  0.00    -0.000 A 
ATOM      5  CZ  PHE A   1      15.138   8.794  14.597  0.00  0.00    -0.000 A 
ATOM      6  CE1 PHE A   1      15.797   9.847  13.963  0.00  0.00    -0.000 A 
ATOM      7  CD1 PHE A   1      15.152  11.023  13.798  0.00  0.00    -0.004 A 
ENDBRANCH   1   2
BRANCH   1   8
ATOM      8  CA  PHE A   1      13.193  13.457  15.089  0.00  0.00    +0.137 C 
BRANCH   8   9
ATOM      9  N   PHE A   1      12.507  14.678  14.668  0.00  0.00    -0.239 NA
ATOM     10  H   PHE A   1      12.180  14.771  13.685  0.00  0.00    +0.142 HD
ENDBRANCH   8   9
BRANCH   8  11
ATOM     11  C   PHE A   1      14.607  13.769  15.474  0.00  0.00    +0.224 C 
ATOM     12  O   PHE A   1      15.121  13.196  16.439  0.00  0.00    -0.287 OA
ENDBRANCH   8  11
ENDBRANCH   1   8
TORSDOF 4
REMARK  Name = ../refined-set-2016/4q99/4q99_pocket.pdb
REMARK  130 active torsions:
REMARK  status: ('A' for Active; 'I' for Inactive)
REMARK    1  A    between atoms: _1  and  _3
REMARK    2  A    between atoms: _3  and  _4
REMARK    3  A    between atoms: _3  and  _6
REMARK    4  A    between atoms: _6  and  _7
REMARK    5  A    between atoms: _17  and  _19
REMARK    6  A    between atoms: _19  and  _20
REMARK    7  A    between atoms: _19  and  _22
REMARK    8  A    between atoms: _22  and  _23
REMARK    9  A    between atoms: _28  and  _29
REMARK   10  A    between atoms: _31  and  _33
REMARK   11  A    between atoms: _33  and  _34
REMARK   12  A    between atoms: _33  and  _36
REMARK   13  A    between atoms: _36  and  _37
REMARK   14  A    between atoms: _39  and  _41
REMARK   15  A    between atoms: _41  and  _42
REMARK   16  A    between atoms: _41  and  _44
REMARK   17  A    between atoms: _44  and  _45
REMARK   18  A    between atoms: _50  and  _52
REMARK   19  A    between atoms: _52  and  _53
REMARK   20  A    between atoms: _52  and  _55
REMARK   21  A    between atoms: _55  and  _56
REMARK   22  A    between atoms: _61  and  _63
REMARK   23  A    between atoms: _63  and  _64
REMARK   24  A    between atoms: _63  and  _66
REMARK   25  A    between atoms: _66  and  _67
REMARK   26  A    between atoms: _70  and  _72
REMARK   27  A    between atoms: _72  and  _73
REMARK   28  A    between atoms: _72  and  _75
REMARK   29  A    between atoms: _75  and  _76
REMARK   30  A    between atoms: _76  and  _77
REMARK   31  A    between atoms: _82  and  _84
REMARK   32  A    between atoms: _95  and  _98
REMARK   33  A    between atoms: _98  and  _99
REMARK   34  A    between atoms: _107  and  _108
REMARK   35  A    between atoms: _116  and  _118
REMARK   36  A    between atoms: _118  and  _119
REMARK   37  A    between atoms: _118  and  _121
REMARK   38  A    between atoms: _121  and  _122
REMARK   39  A    between atoms: _122  and  _123
REMARK   40  A    between atoms: _126  and  _128
REMARK   41  A    between atoms: _128  and  _129
REMARK   42  A    between atoms: _128  and  _131
REMARK   43  A    between atoms: _131  and  _132
REMARK   44  A    between atoms: _137  and  _139
REMARK   45  A    between atoms: _139  and  _140
REMARK   46  A    between atoms: _139  and  _142
REMARK   47  A    between atoms: _142  and  _143
REMARK   48  A    between atoms: _143  and  _144
REMARK   49  A    between atoms: _147  and  _149
REMARK   50  A    between atoms: _149  and  _150
REMARK   51  A    between atoms: _149  and  _152
REMARK   52  A    between atoms: _152  and  _153
REMARK   53  A    between atoms: _154  and  ZN_364
REMARK   54  A    between atoms: _158  and  _160
REMARK   55  A    between atoms: _160  and  _161
REMARK   56  A    between atoms: _160  and  _163
REMARK   57  A    between atoms: _163  and  _164
REMARK   58  A    between atoms: _167  and  _169
REMARK   59  A    between atoms: _169  and  _170
REMARK   60  A    between atoms: _169  and  _172
REMARK   61  A    between atoms: _175  and  _177
REMARK   62  A    between atoms: _177  and  _178
REMARK   63  A    between atoms: _177  and  _180
REMARK   64  A    between atoms: _180  and  _181
REMARK   65  A    between atoms: _186  and  _188
REMARK   66  A    between atoms: _188  and  _189
REMARK   67  A    between atoms: _188  and  _191
REMARK   68  A    between atoms: _191  and  _192
REMARK   69  A    between atoms: _198  and  _200
REMARK   70  A    between atoms: _200  and  _201
REMARK   71  A    between atoms: _200  and  _203
REMARK   72  A    between atoms: _206  and  _208
REMARK   73  A    between atoms: _208  and  _209
REMARK   74  A    between atoms: _208  and  _211
REMARK   75  A    between atoms: _211  and  _212
REMARK   76  A    between atoms: _215  and  _217
REMARK   77  A    between atoms: _217  and  _218
REMARK   78  A    between atoms: _221  and  _223
REMARK   79  A    between atoms: _223  and  _224
REMARK   80  A    between atoms: _223  and  _226
REMARK   81  A    between atoms: _229  and  _231
REMARK   82  A    between atoms: _231  and  _232
REMARK   83  A    between atoms: _231  and  _234
REMARK   84  A    between atoms: _234  and  _235
REMARK   85  A    between atoms: _238  and  _240
REMARK   86  A    between atoms: _240  and  _241
REMARK   87  A    between atoms: _240  and  _243
REMARK   88  A    between atoms: _243  and  _244
REMARK   89  A    between atoms: _246  and  _248
REMARK   90  A    between atoms: _248  and  _249
REMARK   91  A    between atoms: _248  and  _251
REMARK   92  A    between atoms: _251  and  _252
REMARK   93  A    between atoms: _255  and  _257
REMARK   94  A    between atoms: _257  and  _258
REMARK   95  A    between atoms: _257  and  _260
REMARK   96  A    between atoms: _260  and  _261
REMARK   97  A    between atoms: _264  and  _266
REMARK   98  A    between atoms: _266  and  _267
REMARK   99  A    between atoms: _266  and  _269
REMARK  100  A    between atoms: _269  and  _270
REMARK  101  A    between atoms: _274  and  _275
REMARK  102  A    between atoms: _281  and  _282
REMARK  103  A    between atoms: _287  and  _289
REMARK  104  A    between atoms: _289  and  _290
REMARK  105  A    between atoms: _289  and  _292
REMARK  106  A    between atoms: _292  and  _293
REMARK  107  A    between atoms: _296  and  _298
REMARK  108  A    between atoms: _298  and  _299
REMARK  109  A    between atoms: _298  and  _301
REMARK  110  A    between atoms: _301  and  _302
REMARK  111  A    between atoms: _305  and  _307
REMARK  112  A    between atoms: _307  and  _308
REMARK  113  A    between atoms: _307  and  _310
REMARK  114  A    between atoms: _312  and  _314
REMARK  115  A    between atoms: _314  and  _315
REMARK  116  A    between atoms: _314  and  _317
REMARK  117  A    between atoms: _320  and  _322
REMARK  118  A    between atoms: _322  and  _323
REMARK  119  A    between atoms: _322  and  _325
REMARK  120  A    between atoms: _325  and  _326
REMARK  121  A    between atoms: _336  and  _338
REMARK  122  A    between atoms: _338  and  _339
REMARK  123  A    between atoms: _338  and  _341
REMARK  124  A    between atoms: _341  and  _342
REMARK  125  A    between atoms: _347  and  _349
REMARK  126  A    between atoms: _349  and  _350
REMARK  127  A    between atoms: _349  and  _352
REMARK  128  A    between atoms: _352  and  _353
REMARK  129  A    between atoms: _353  and  _354
REMARK  130  A    between atoms: _354  and  _355
REMARK                            x       y       z     vdW  Elec       q    Type
REMARK                         _______ _______ _______ _____ _____    ______ ____
ROOT
ATOM      1  CA  VAL A   1      17.224  11.690  19.573  0.00  0.00    +0.133 C 
ENDROOT
BRANCH   1   2
ATOM      2  CB  VAL A   1      17.733  10.842  18.325  0.00  0.00    +0.023 C 
ATOM      3  CG2 VAL A   1      16.484  10.195  17.658  0.00  0.00    +0.002 C 
ATOM      4  CG1 VAL A   1      18.474  11.728  17.359  0.00  0.00    +0.002 C 
ENDBRANCH   1   2
BRANCH   1   5
ATOM      5  N   VAL A   1      16.191  12.723  19.178  0.00  0.00    -0.239 NA
ATOM      6  H   VAL A   1      16.130  13.083  18.204  0.00  0.00    +0.142 HD
ENDBRANCH   1   5
BRANCH   1   7
ATOM      7  C   VAL A   1      18.407  12.300  20.329  0.00  0.00    +0.224 C 
ATOM      8  O   VAL A   1      19.285  11.534  20.684  0.00  0.00    -0.287 OA
ENDBRANCH   1   7
TORSDOF 3
REMARK  Name = ../refined-set-2016/4q99/4q99_pocket.pdb
REMARK  130 active torsions:
REMARK  status: ('A' for Active; 'I' for Inactive)
REMARK    1  A    between atoms: _1  and  _3
REMARK    2  A    between atoms: _3  and  _4
REMARK    3  A    between atoms: _3  and  _6
REMARK    4  A    between atoms: _6  and  _7
REMARK    5  A    between atoms: _17  and  _19
REMARK    6  A    between atoms: _19  and  _20
REMARK    7  A    between atoms: _19  and  _22
REMARK    8  A    between atoms: _22  and  _23
REMARK    9  A    between atoms: _28  and  _29
REMARK   10  A    between atoms: _31  and  _33
REMARK   11  A    between atoms: _33  and  _34
REMARK   12  A    between atoms: _33  and  _36
REMARK   13  A    between atoms: _36  and  _37
REMARK   14  A    between atoms: _39  and  _41
REMARK   15  A    between atoms: _41  and  _42
REMARK   16  A    between atoms: _41  and  _44
REMARK   17  A    between atoms: _44  and  _45
REMARK   18  A    between atoms: _50  and  _52
REMARK   19  A    between atoms: _52  and  _53
REMARK   20  A    between atoms: _52  and  _55
REMARK   21  A    between atoms: _55  and  _56
REMARK   22  A    between atoms: _61  and  _63
REMARK   23  A    between atoms: _63  and  _64
REMARK   24  A    between atoms: _63  and  _66
REMARK   25  A    between atoms: _66  and  _67
REMARK   26  A    between atoms: _70  and  _72
REMARK   27  A    between atoms: _72  and  _73
REMARK   28  A    between atoms: _72  and  _75
REMARK   29  A    between atoms: _75  and  _76
REMARK   30  A    between atoms: _76  and  _77
REMARK   31  A    between atoms: _82  and  _84
REMARK   32  A    between atoms: _95  and  _98
REMARK   33  A    between atoms: _98  and  _99
REMARK   34  A    between atoms: _107  and  _108
REMARK   35  A    between atoms: _116  and  _118
REMARK   36  A    between atoms: _118  and  _119
REMARK   37  A    between atoms: _118  and  _121
REMARK   38  A    between atoms: _121  and  _122
REMARK   39  A    between atoms: _122  and  _123
REMARK   40  A    between atoms: _126  and  _128
REMARK   41  A    between atoms: _128  and  _129
REMARK   42  A    between atoms: _128  and  _131
REMARK   43  A    between atoms: _131  and  _132
REMARK   44  A    between atoms: _137  and  _139
REMARK   45  A    between atoms: _139  and  _140
REMARK   46  A    between atoms: _139  and  _142
REMARK   47  A    between atoms: _142  and  _143
REMARK   48  A    between atoms: _143  and  _144
REMARK   49  A    between atoms: _147  and  _149
REMARK   50  A    between atoms: _149  and  _150
REMARK   51  A    between atoms: _149  and  _152
REMARK   52  A    between atoms: _152  and  _153
REMARK   53  A    between atoms: _154  and  ZN_364
REMARK   54  A    between atoms: _158  and  _160
REMARK   55  A    between atoms: _160  and  _161
REMARK   56  A    between atoms: _160  and  _163
REMARK   57  A    between atoms: _163  and  _164
REMARK   58  A    between atoms: _167  and  _169
REMARK   59  A    between atoms: _169  and  _170
REMARK   60  A    between atoms: _169  and  _172
REMARK   61  A    between atoms: _175  and  _177
REMARK   62  A    between atoms: _177  and  _178
REMARK   63  A    between atoms: _177  and  _180
REMARK   64  A    between atoms: _180  and  _181
REMARK   65  A    between atoms: _186  and  _188
REMARK   66  A    between atoms: _188  and  _189
REMARK   67  A    between atoms: _188  and  _191
REMARK   68  A    between atoms: _191  and  _192
REMARK   69  A    between atoms: _198  and  _200
REMARK   70  A    between atoms: _200  and  _201
REMARK   71  A    between atoms: _200  and  _203
REMARK   72  A    between atoms: _206  and  _208
REMARK   73  A    between atoms: _208  and  _209
REMARK   74  A    between atoms: _208  and  _211
REMARK   75  A    between atoms: _211  and  _212
REMARK   76  A    between atoms: _215  and  _217
REMARK   77  A    between atoms: _217  and  _218
REMARK   78  A    between atoms: _221  and  _223
REMARK   79  A    between atoms: _223  and  _224
REMARK   80  A    between atoms: _223  and  _226
REMARK   81  A    between atoms: _229  and  _231
REMARK   82  A    between atoms: _231  and  _232
REMARK   83  A    between atoms: _231  and  _234
REMARK   84  A    between atoms: _234  and  _235
REMARK   85  A    between atoms: _238  and  _240
REMARK   86  A    between atoms: _240  and  _241
REMARK   87  A    between atoms: _240  and  _243
REMARK   88  A    between atoms: _243  and  _244
REMARK   89  A    between atoms: _246  and  _248
REMARK   90  A    between atoms: _248  and  _249
REMARK   91  A    between atoms: _248  and  _251
REMARK   92  A    between atoms: _251  and  _252
REMARK   93  A    between atoms: _255  and  _257
REMARK   94  A    between atoms: _257  and  _258
REMARK   95  A    between atoms: _257  and  _260
REMARK   96  A    between atoms: _260  and  _261
REMARK   97  A    between atoms: _264  and  _266
REMARK   98  A    between atoms: _266  and  _267
REMARK   99  A    between atoms: _266  and  _269
REMARK  100  A    between atoms: _269  and  _270
REMARK  101  A    between atoms: _274  and  _275
REMARK  102  A    between atoms: _281  and  _282
REMARK  103  A    between atoms: _287  and  _289
REMARK  104  A    between atoms: _289  and  _290
REMARK  105  A    between atoms: _289  and  _292
REMARK  106  A    between atoms: _292  and  _293
REMARK  107  A    between atoms: _296  and  _298
REMARK  108  A    between atoms: _298  and  _299
REMARK  109  A    between atoms: _298  and  _301
REMARK  110  A    between atoms: _301  and  _302
REMARK  111  A    between atoms: _305  and  _307
REMARK  112  A    between atoms: _307  and  _308
REMARK  113  A    between atoms: _307  and  _310
REMARK  114  A    between atoms: _312  and  _314
REMARK  115  A    between atoms: _314  and  _315
REMARK  116  A    between atoms: _314  and  _317
REMARK  117  A    between atoms: _320  and  _322
REMARK  118  A    between atoms: _322  and  _323
REMARK  119  A    between atoms: _322  and  _325
REMARK  120  A    between atoms: _325  and  _326
REMARK  121  A    between atoms: _336  and  _338
REMARK  122  A    between atoms: _338  and  _339
REMARK  123  A    between atoms: _338  and  _341
REMARK  124  A    between atoms: _341  and  _342
REMARK  125  A    between atoms: _347  and  _349
REMARK  126  A    between atoms: _349  and  _350
REMARK  127  A    between atoms: _349  and  _352
REMARK  128  A    between atoms: _352  and  _353
REMARK  129  A    between atoms: _353  and  _354
REMARK  130  A    between atoms: _354  and  _355
REMARK                            x       y       z     vdW  Elec       q    Type
REMARK                         _______ _______ _______ _____ _____    ______ ____
ROOT
ATOM      1  C   ALA A   2       8.594   4.832  20.803  0.00  0.00    +0.241 C 
ATOM      2  N   VAL A   3       9.036   3.613  21.127  0.00  0.00    -0.297 N 
ATOM      3  H   VAL A   3       9.398   3.420  22.083  0.00  0.00    +0.150 HD
ATOM      4  O   ALA A   2       8.223   5.178  19.658  0.00  0.00    -0.273 OA
ENDROOT
BRANCH   1   5
ATOM      5  CA  ALA A   2       8.704   5.822  21.925  0.00  0.00    +0.149 C 
ATOM      6  CB  ALA A   2       7.286   6.287  22.378  0.00  0.00    +0.031 C 
BRANCH   5   9
ATOM      7  C   LEU A   1      10.518   7.464  22.125  0.00  0.00    +0.238 C 
ATOM      8  O   LEU A   1      10.763   7.168  23.267  0.00  0.00    -0.274 OA
ATOM      9  N   ALA A   2       9.474   6.975  21.452  0.00  0.00    -0.297 N 
ATOM     10  H   ALA A   2       9.197   7.430  20.559  0.00  0.00    +0.150 HD
BRANCH   7  11
ATOM     11  CA  LEU A   1      11.438   8.353  21.269  0.00  0.00    +0.145 C 
BRANCH  11  12
ATOM     12  N   LEU A   1      12.111   9.329  22.153  0.00  0.00    -0.238 NA
ATOM     13  H   LEU A   1      12.685   9.009  22.959  0.00  0.00    +0.142 HD
ENDBRANCH  11  12
BRANCH  11  14
ATOM     14  CB  LEU A   1      12.425   7.473  20.491  0.00  0.00    +0.026 C 
BRANCH  14  15
ATOM     15  CG  LEU A   1      13.323   8.268  19.587  0.00  0.00    +0.002 C 
ATOM     16  CD2 LEU A   1      14.167   7.199  18.861  0.00  0.00    +0.000 C 
ATOM     17  CD1 LEU A   1      12.645   9.087  18.477  0.00  0.00    +0.000 C 
ENDBRANCH  14  15
ENDBRANCH  11  14
ENDBRANCH   7  11
ENDBRANCH   5   9
ENDBRANCH   1   5
BRANCH   2  18
ATOM     18  CA  VAL A   3       9.003   2.541  20.107  0.00  0.00    +0.149 C 
BRANCH  18  19
ATOM     19  C   VAL A   3       8.009   1.481  20.558  0.00  0.00    +0.241 C 
ATOM     20  O   VAL A   3       8.135   0.941  21.655  0.00  0.00    -0.273 OA
ATOM     21  N   LEU A   4       7.013   1.245  19.707  0.00  0.00    -0.298 N 
ATOM     22  H   LEU A   4       6.907   1.842  18.862  0.00  0.00    +0.150 HD
BRANCH  21  23
ATOM     23  CA  LEU A   4       6.078   0.169  19.943  0.00  0.00    +0.137 C 
BRANCH  23  24
ATOM     24  C   LEU A   4       6.632  -1.084  19.277  0.00  0.00    +0.227 C 
ATOM     25  O   LEU A   4       6.854  -1.134  18.058  0.00  0.00    -0.286 OA
ENDBRANCH  23  24
BRANCH  23  26
ATOM     26  CB  LEU A   4       4.691   0.580  19.346  0.00  0.00    +0.028 C 
BRANCH  26  27
ATOM     27  CG  LEU A   4       3.627  -0.462  19.474  0.00  0.00    +0.002 C 
ATOM     28  CD2 LEU A   4       3.249  -0.671  20.941  0.00  0.00    +0.000 C 
ATOM     29  CD1 LEU A   4       2.402   0.242  18.805  0.00  0.00    +0.000 C 
ENDBRANCH  26  27
ENDBRANCH  23  26
ENDBRANCH  21  23
ENDBRANCH  18  19
BRANCH  18  30
ATOM     30  CB  VAL A   3      10.391   1.962  19.788  0.00  0.00    +0.027 C 
ATOM     31  CG2 VAL A   3      11.344   3.046  19.360  0.00  0.00    +0.002 C 
ATOM     32  CG1 VAL A   3      10.231   0.928  18.606  0.00  0.00    +0.002 C 
ENDBRANCH  18  30
ENDBRANCH   2  18
TORSDOF 13
REMARK  Name = ../refined-set-2016/4q99/4q99_pocket.pdb
REMARK  130 active torsions:
REMARK  status: ('A' for Active; 'I' for Inactive)
REMARK    1  A    between atoms: _1  and  _3
REMARK    2  A    between atoms: _3  and  _4
REMARK    3  A    between atoms: _3  and  _6
REMARK    4  A    between atoms: _6  and  _7
REMARK    5  A    between atoms: _17  and  _19
REMARK    6  A    between atoms: _19  and  _20
REMARK    7  A    between atoms: _19  and  _22
REMARK    8  A    between atoms: _22  and  _23
REMARK    9  A    between atoms: _28  and  _29
REMARK   10  A    between atoms: _31  and  _33
REMARK   11  A    between atoms: _33  and  _34
REMARK   12  A    between atoms: _33  and  _36
REMARK   13  A    between atoms: _36  and  _37
REMARK   14  A    between atoms: _39  and  _41
REMARK   15  A    between atoms: _41  and  _42
REMARK   16  A    between atoms: _41  and  _44
REMARK   17  A    between atoms: _44  and  _45
REMARK   18  A    between atoms: _50  and  _52
REMARK   19  A    between atoms: _52  and  _53
REMARK   20  A    between atoms: _52  and  _55
REMARK   21  A    between atoms: _55  and  _56
REMARK   22  A    between atoms: _61  and  _63
REMARK   23  A    between atoms: _63  and  _64
REMARK   24  A    between atoms: _63  and  _66
REMARK   25  A    between atoms: _66  and  _67
REMARK   26  A    between atoms: _70  and  _72
REMARK   27  A    between atoms: _72  and  _73
REMARK   28  A    between atoms: _72  and  _75
REMARK   29  A    between atoms: _75  and  _76
REMARK   30  A    between atoms: _76  and  _77
REMARK   31  A    between atoms: _82  and  _84
REMARK   32  A    between atoms: _95  and  _98
REMARK   33  A    between atoms: _98  and  _99
REMARK   34  A    between atoms: _107  and  _108
REMARK   35  A    between atoms: _116  and  _118
REMARK   36  A    between atoms: _118  and  _119
REMARK   37  A    between atoms: _118  and  _121
REMARK   38  A    between atoms: _121  and  _122
REMARK   39  A    between atoms: _122  and  _123
REMARK   40  A    between atoms: _126  and  _128
REMARK   41  A    between atoms: _128  and  _129
REMARK   42  A    between atoms: _128  and  _131
REMARK   43  A    between atoms: _131  and  _132
REMARK   44  A    between atoms: _137  and  _139
REMARK   45  A    between atoms: _139  and  _140
REMARK   46  A    between atoms: _139  and  _142
REMARK   47  A    between atoms: _142  and  _143
REMARK   48  A    between atoms: _143  and  _144
REMARK   49  A    between atoms: _147  and  _149
REMARK   50  A    between atoms: _149  and  _150
REMARK   51  A    between atoms: _149  and  _152
REMARK   52  A    between atoms: _152  and  _153
REMARK   53  A    between atoms: _154  and  ZN_364
REMARK   54  A    between atoms: _158  and  _160
REMARK   55  A    between atoms: _160  and  _161
REMARK   56  A    between atoms: _160  and  _163
REMARK   57  A    between atoms: _163  and  _164
REMARK   58  A    between atoms: _167  and  _169
REMARK   59  A    between atoms: _169  and  _170
REMARK   60  A    between atoms: _169  and  _172
REMARK   61  A    between atoms: _175  and  _177
REMARK   62  A    between atoms: _177  and  _178
REMARK   63  A    between atoms: _177  and  _180
REMARK   64  A    between atoms: _180  and  _181
REMARK   65  A    between atoms: _186  and  _188
REMARK   66  A    between atoms: _188  and  _189
REMARK   67  A    between atoms: _188  and  _191
REMARK   68  A    between atoms: _191  and  _192
REMARK   69  A    between atoms: _198  and  _200
REMARK   70  A    between atoms: _200  and  _201
REMARK   71  A    between atoms: _200  and  _203
REMARK   72  A    between atoms: _206  and  _208
REMARK   73  A    between atoms: _208  and  _209
REMARK   74  A    between atoms: _208  and  _211
REMARK   75  A    between atoms: _211  and  _212
REMARK   76  A    between atoms: _215  and  _217
REMARK   77  A    between atoms: _217  and  _218
REMARK   78  A    between atoms: _221  and  _223
REMARK   79  A    between atoms: _223  and  _224
REMARK   80  A    between atoms: _223  and  _226
REMARK   81  A    between atoms: _229  and  _231
REMARK   82  A    between atoms: _231  and  _232
REMARK   83  A    between atoms: _231  and  _234
REMARK   84  A    between atoms: _234  and  _235
REMARK   85  A    between atoms: _238  and  _240
REMARK   86  A    between atoms: _240  and  _241
REMARK   87  A    between atoms: _240  and  _243
REMARK   88  A    between atoms: _243  and  _244
REMARK   89  A    between atoms: _246  and  _248
REMARK   90  A    between atoms: _248  and  _249
REMARK   91  A    between atoms: _248  and  _251
REMARK   92  A    between atoms: _251  and  _252
REMARK   93  A    between atoms: _255  and  _257
REMARK   94  A    between atoms: _257  and  _258
REMARK   95  A    between atoms: _257  and  _260
REMARK   96  A    between atoms: _260  and  _261
REMARK   97  A    between atoms: _264  and  _266
REMARK   98  A    between atoms: _266  and  _267
REMARK   99  A    between atoms: _266  and  _269
REMARK  100  A    between atoms: _269  and  _270
REMARK  101  A    between atoms: _274  and  _275
REMARK  102  A    between atoms: _281  and  _282
REMARK  103  A    between atoms: _287  and  _289
REMARK  104  A    between atoms: _289  and  _290
REMARK  105  A    between atoms: _289  and  _292
REMARK  106  A    between atoms: _292  and  _293
REMARK  107  A    between atoms: _296  and  _298
REMARK  108  A    between atoms: _298  and  _299
REMARK  109  A    between atoms: _298  and  _301
REMARK  110  A    between atoms: _301  and  _302
REMARK  111  A    between atoms: _305  and  _307
REMARK  112  A    between atoms: _307  and  _308
REMARK  113  A    between atoms: _307  and  _310
REMARK  114  A    between atoms: _312  and  _314
REMARK  115  A    between atoms: _314  and  _315
REMARK  116  A    between atoms: _314  and  _317
REMARK  117  A    between atoms: _320  and  _322
REMARK  118  A    between atoms: _322  and  _323
REMARK  119  A    between atoms: _322  and  _325
REMARK  120  A    between atoms: _325  and  _326
REMARK  121  A    between atoms: _336  and  _338
REMARK  122  A    between atoms: _338  and  _339
REMARK  123  A    between atoms: _338  and  _341
REMARK  124  A    between atoms: _341  and  _342
REMARK  125  A    between atoms: _347  and  _349
REMARK  126  A    between atoms: _349  and  _350
REMARK  127  A    between atoms: _349  and  _352
REMARK  128  A    between atoms: _352  and  _353
REMARK  129  A    between atoms: _353  and  _354
REMARK  130  A    between atoms: _354  and  _355
REMARK                            x       y       z     vdW  Elec       q    Type
REMARK                         _______ _______ _______ _____ _____    ______ ____
ROOT
ATOM      1  C   THR A   4      21.964   0.846  16.233  0.00  0.00    +0.246 C 
ATOM      2  O   THR A   4      21.503   1.839  16.802  0.00  0.00    -0.273 OA
ATOM      3  N   PRO A   5      23.260   0.812  15.812  0.00  0.00    -0.272 N 
ATOM      4  CA  PRO A   5      23.974   2.078  15.850  0.00  0.00    +0.152 C 
ATOM      5  CB  PRO A   5      25.238   1.748  15.015  0.00  0.00    +0.031 C 
ATOM      6  CG  PRO A   5      25.453   0.292  15.348  0.00  0.00    +0.024 C 
ATOM      7  CD  PRO A   5      24.050  -0.317  15.249  0.00  0.00    +0.094 C 
ENDROOT
BRANCH   4   8
ATOM      8  C   PRO A   5      23.139   3.248  15.270  0.00  0.00    +0.244 C 
ATOM      9  N   PRO A   6      23.143   4.424  15.883  0.00  0.00    -0.272 N 
ATOM     10  CA  PRO A   6      24.079   4.849  16.927  0.00  0.00    +0.152 C 
ATOM     11  CB  PRO A   6      24.089   6.367  16.762  0.00  0.00    +0.031 C 
ATOM     12  CG  PRO A   6      22.749   6.700  16.224  0.00  0.00    +0.024 C 
ATOM     13  CD  PRO A   6      22.407   5.559  15.286  0.00  0.00    +0.094 C 
ATOM     14  O   PRO A   5      22.501   3.104  14.176  0.00  0.00    -0.273 OA
BRANCH  10  15
ATOM     15  C   PRO A   6      23.688   4.486  18.415  0.00  0.00    +0.241 C 
ATOM     16  O   PRO A   6      24.299   4.959  19.382  0.00  0.00    -0.273 OA
ATOM     17  N   LEU A   7      22.727   3.562  18.582  0.00  0.00    -0.297 N 
ATOM     18  H   LEU A   7      22.167   3.235  17.769  0.00  0.00    +0.150 HD
BRANCH  17  19
ATOM     19  CA  LEU A   7      22.475   3.022  19.911  0.00  0.00    +0.149 C 
BRANCH  19  20
ATOM     20  C   LEU A   7      22.015   4.055  21.009  0.00  0.00    +0.241 C 
ATOM     21  O   LEU A   7      22.198   3.806  22.177  0.00  0.00    -0.273 OA
ATOM     22  N   LEU A   8      21.373   5.122  20.511  0.00  0.00    -0.298 N 
ATOM     23  H   LEU A   8      21.077   5.128  19.514  0.00  0.00    +0.150 HD
BRANCH  22  24
ATOM     24  CA  LEU A   8      21.087   6.273  21.359  0.00  0.00    +0.137 C 
BRANCH  24  25
ATOM     25  C   LEU A   8      20.081   5.874  22.440  0.00  0.00    +0.227 C 
ATOM     26  O   LEU A   8      19.081   5.208  22.206  0.00  0.00    -0.286 OA
ENDBRANCH  24  25
BRANCH  24  27
ATOM     27  CB  LEU A   8      20.576   7.450  20.527  0.00  0.00    +0.028 C 
BRANCH  27  28
ATOM     28  CG  LEU A   8      21.635   7.958  19.496  0.00  0.00    +0.002 C 
ATOM     29  CD2 LEU A   8      22.774   8.575  20.219  0.00  0.00    +0.000 C 
ATOM     30  CD1 LEU A   8      21.024   8.979  18.546  0.00  0.00    +0.000 C 
ENDBRANCH  27  28
ENDBRANCH  24  27
ENDBRANCH  22  24
ENDBRANCH  19  20
BRANCH  19  31
ATOM     31  CB  LEU A   7      23.639   2.123  20.424  0.00  0.00    +0.029 C 
BRANCH  31  32
ATOM     32  CG  LEU A   7      23.927   0.977  19.472  0.00  0.00    +0.002 C 
ATOM     33  CD2 LEU A   7      25.277   0.320  19.881  0.00  0.00    +0.000 C 
ATOM     34  CD1 LEU A   7      22.840  -0.144  19.419  0.00  0.00    +0.000 C 
ENDBRANCH  31  32
ENDBRANCH  19  31
ENDBRANCH  17  19
ENDBRANCH  10  15
ENDBRANCH   4   8
BRANCH   1  35
ATOM     35  CA  THR A   4      21.130  -0.373  16.009  0.00  0.00    +0.176 C 
BRANCH  35  38
ATOM     36  C   THR A   3      19.974  -1.540  17.825  0.00  0.00    +0.243 C 
ATOM     37  O   THR A   3      20.649  -2.535  17.603  0.00  0.00    -0.273 OA
ATOM     38  N   THR A   4      20.089  -0.446  17.079  0.00  0.00    -0.295 N 
ATOM     39  H   THR A   4      19.453   0.361  17.240  0.00  0.00    +0.150 HD
BRANCH  36  40
ATOM     40  CA  THR A   3      18.981  -1.516  18.990  0.00  0.00    +0.176 C 
BRANCH  40  43
ATOM     41  C   LEU A   2      18.665   0.763  19.756  0.00  0.00    +0.241 C 
ATOM     42  O   LEU A   2      19.699   0.631  20.503  0.00  0.00    -0.273 OA
ATOM     43  N   THR A   3      18.281  -0.192  18.991  0.00  0.00    -0.295 N 
ATOM     44  H   THR A   3      17.468  -0.044  18.359  0.00  0.00    +0.150 HD
BRANCH  41  45
ATOM     45  CA  LEU A   2      17.928   2.077  19.644  0.00  0.00    +0.149 C 
BRANCH  45  48
ATOM     46  C   SER A   1      17.430   2.114  22.011  0.00  0.00    +0.241 C 
ATOM     47  O   SER A   1      16.685   1.091  21.908  0.00  0.00    -0.274 OA
ATOM     48  N   LEU A   2      17.967   2.729  20.953  0.00  0.00    -0.297 N 
ATOM     49  H   LEU A   2      18.409   3.664  21.059  0.00  0.00    +0.150 HD
BRANCH  46  50
ATOM     50  CA  SER A   1      17.856   2.565  23.421  0.00  0.00    +0.174 C 
BRANCH  50  51
ATOM     51  N   SER A   1      17.068   1.932  24.500  0.00  0.00    -0.236 NA
ATOM     52  H   SER A   1      16.833   0.921  24.430  0.00  0.00    +0.142 HD
ENDBRANCH  50  51
BRANCH  50  53
ATOM     53  CB  SER A   1      19.359   2.182  23.590  0.00  0.00    +0.163 C 
BRANCH  53  54
ATOM     54  OG  SER A   1      19.619   0.824  23.269  0.00  0.00    -0.380 OA
ATOM     55  H   SER A   1      19.367   0.655  22.327  0.00  0.00    +0.211 HD
ENDBRANCH  53  54
ENDBRANCH  50  53
ENDBRANCH  46  50
ENDBRANCH  45  48
BRANCH  45  56
ATOM     56  CB  LEU A   2      18.696   2.928  18.675  0.00  0.00    +0.029 C 
BRANCH  56  57
ATOM     57  CG  LEU A   2      17.986   4.066  17.977  0.00  0.00    +0.002 C 
ATOM     58  CD2 LEU A   2      17.155   5.038  18.782  0.00  0.00    +0.000 C 
ATOM     59  CD1 LEU A   2      18.947   4.815  17.018  0.00  0.00    +0.000 C 
ENDBRANCH  56  57
ENDBRANCH  45  56
ENDBRANCH  41  45
ENDBRANCH  40  43
BRANCH  40  60
ATOM     60  CB  THR A   3      17.982  -2.601  18.820  0.00  0.00    +0.137 C 
ATOM     61  CG2 THR A   3      16.904  -2.471  19.894  0.00  0.00    +0.034 C 
BRANCH  60  62
ATOM     62  OG1 THR A   3      17.387  -2.439  17.532  0.00  0.00    -0.382 OA
ATOM     63  HG1 THR A   3      16.714  -3.151  17.389  0.00  0.00    +0.210 HD
ENDBRANCH  60  62
ENDBRANCH  40  60
ENDBRANCH  36  40
ENDBRANCH  35  38
BRANCH  35  64
ATOM     64  CB  THR A   4      20.416  -0.220  14.645  0.00  0.00    +0.137 C 
ATOM     65  CG2 THR A   4      19.729  -1.464  14.263  0.00  0.00    +0.034 C 
BRANCH  64  66
ATOM     66  OG1 THR A   4      19.417   0.817  14.763  0.00  0.00    -0.382 OA
ATOM     67  HG1 THR A   4      19.855   1.669  15.013  0.00  0.00    +0.210 HD
ENDBRANCH  64  66
ENDBRANCH  35  64
ENDBRANCH   1  35
TORSDOF 26
REMARK  Name = ../refined-set-2016/4q99/4q99_pocket.pdb
REMARK  130 active torsions:
REMARK  status: ('A' for Active; 'I' for Inactive)
REMARK    1  A    between atoms: _1  and  _3
REMARK    2  A    between atoms: _3  and  _4
REMARK    3  A    between atoms: _3  and  _6
REMARK    4  A    between atoms: _6  and  _7
REMARK    5  A    between atoms: _17  and  _19
REMARK    6  A    between atoms: _19  and  _20
REMARK    7  A    between atoms: _19  and  _22
REMARK    8  A    between atoms: _22  and  _23
REMARK    9  A    between atoms: _28  and  _29
REMARK   10  A    between atoms: _31  and  _33
REMARK   11  A    between atoms: _33  and  _34
REMARK   12  A    between atoms: _33  and  _36
REMARK   13  A    between atoms: _36  and  _37
REMARK   14  A    between atoms: _39  and  _41
REMARK   15  A    between atoms: _41  and  _42
REMARK   16  A    between atoms: _41  and  _44
REMARK   17  A    between atoms: _44  and  _45
REMARK   18  A    between atoms: _50  and  _52
REMARK   19  A    between atoms: _52  and  _53
REMARK   20  A    between atoms: _52  and  _55
REMARK   21  A    between atoms: _55  and  _56
REMARK   22  A    between atoms: _61  and  _63
REMARK   23  A    between atoms: _63  and  _64
REMARK   24  A    between atoms: _63  and  _66
REMARK   25  A    between atoms: _66  and  _67
REMARK   26  A    between atoms: _70  and  _72
REMARK   27  A    between atoms: _72  and  _73
REMARK   28  A    between atoms: _72  and  _75
REMARK   29  A    between atoms: _75  and  _76
REMARK   30  A    between atoms: _76  and  _77
REMARK   31  A    between atoms: _82  and  _84
REMARK   32  A    between atoms: _95  and  _98
REMARK   33  A    between atoms: _98  and  _99
REMARK   34  A    between atoms: _107  and  _108
REMARK   35  A    between atoms: _116  and  _118
REMARK   36  A    between atoms: _118  and  _119
REMARK   37  A    between atoms: _118  and  _121
REMARK   38  A    between atoms: _121  and  _122
REMARK   39  A    between atoms: _122  and  _123
REMARK   40  A    between atoms: _126  and  _128
REMARK   41  A    between atoms: _128  and  _129
REMARK   42  A    between atoms: _128  and  _131
REMARK   43  A    between atoms: _131  and  _132
REMARK   44  A    between atoms: _137  and  _139
REMARK   45  A    between atoms: _139  and  _140
REMARK   46  A    between atoms: _139  and  _142
REMARK   47  A    between atoms: _142  and  _143
REMARK   48  A    between atoms: _143  and  _144
REMARK   49  A    between atoms: _147  and  _149
REMARK   50  A    between atoms: _149  and  _150
REMARK   51  A    between atoms: _149  and  _152
REMARK   52  A    between atoms: _152  and  _153
REMARK   53  A    between atoms: _154  and  ZN_364
REMARK   54  A    between atoms: _158  and  _160
REMARK   55  A    between atoms: _160  and  _161
REMARK   56  A    between atoms: _160  and  _163
REMARK   57  A    between atoms: _163  and  _164
REMARK   58  A    between atoms: _167  and  _169
REMARK   59  A    between atoms: _169  and  _170
REMARK   60  A    between atoms: _169  and  _172
REMARK   61  A    between atoms: _175  and  _177
REMARK   62  A    between atoms: _177  and  _178
REMARK   63  A    between atoms: _177  and  _180
REMARK   64  A    between atoms: _180  and  _181
REMARK   65  A    between atoms: _186  and  _188
REMARK   66  A    between atoms: _188  and  _189
REMARK   67  A    between atoms: _188  and  _191
REMARK   68  A    between atoms: _191  and  _192
REMARK   69  A    between atoms: _198  and  _200
REMARK   70  A    between atoms: _200  and  _201
REMARK   71  A    between atoms: _200  and  _203
REMARK   72  A    between atoms: _206  and  _208
REMARK   73  A    between atoms: _208  and  _209
REMARK   74  A    between atoms: _208  and  _211
REMARK   75  A    between atoms: _211  and  _212
REMARK   76  A    between atoms: _215  and  _217
REMARK   77  A    between atoms: _217  and  _218
REMARK   78  A    between atoms: _221  and  _223
REMARK   79  A    between atoms: _223  and  _224
REMARK   80  A    between atoms: _223  and  _226
REMARK   81  A    between atoms: _229  and  _231
REMARK   82  A    between atoms: _231  and  _232
REMARK   83  A    between atoms: _231  and  _234
REMARK   84  A    between atoms: _234  and  _235
REMARK   85  A    between atoms: _238  and  _240
REMARK   86  A    between atoms: _240  and  _241
REMARK   87  A    between atoms: _240  and  _243
REMARK   88  A    between atoms: _243  and  _244
REMARK   89  A    between atoms: _246  and  _248
REMARK   90  A    between atoms: _248  and  _249
REMARK   91  A    between atoms: _248  and  _251
REMARK   92  A    between atoms: _251  and  _252
REMARK   93  A    between atoms: _255  and  _257
REMARK   94  A    between atoms: _257  and  _258
REMARK   95  A    between atoms: _257  and  _260
REMARK   96  A    between atoms: _260  and  _261
REMARK   97  A    between atoms: _264  and  _266
REMARK   98  A    between atoms: _266  and  _267
REMARK   99  A    between atoms: _266  and  _269
REMARK  100  A    between atoms: _269  and  _270
REMARK  101  A    between atoms: _274  and  _275
REMARK  102  A    between atoms: _281  and  _282
REMARK  103  A    between atoms: _287  and  _289
REMARK  104  A    between atoms: _289  and  _290
REMARK  105  A    between atoms: _289  and  _292
REMARK  106  A    between atoms: _292  and  _293
REMARK  107  A    between atoms: _296  and  _298
REMARK  108  A    between atoms: _298  and  _299
REMARK  109  A    between atoms: _298  and  _301
REMARK  110  A    between atoms: _301  and  _302
REMARK  111  A    between atoms: _305  and  _307
REMARK  112  A    between atoms: _307  and  _308
REMARK  113  A    between atoms: _307  and  _310
REMARK  114  A    between atoms: _312  and  _314
REMARK  115  A    between atoms: _314  and  _315
REMARK  116  A    between atoms: _314  and  _317
REMARK  117  A    between atoms: _320  and  _322
REMARK  118  A    between atoms: _322  and  _323
REMARK  119  A    between atoms: _322  and  _325
REMARK  120  A    between atoms: _325  and  _326
REMARK  121  A    between atoms: _336  and  _338
REMARK  122  A    between atoms: _338  and  _339
REMARK  123  A    between atoms: _338  and  _341
REMARK  124  A    between atoms: _341  and  _342
REMARK  125  A    between atoms: _347  and  _349
REMARK  126  A    between atoms: _349  and  _350
REMARK  127  A    between atoms: _349  and  _352
REMARK  128  A    between atoms: _352  and  _353
REMARK  129  A    between atoms: _353  and  _354
REMARK  130  A    between atoms: _354  and  _355
REMARK                            x       y       z     vdW  Elec       q    Type
REMARK                         _______ _______ _______ _____ _____    ______ ____
ROOT
ATOM      1  C   CYS A   1      14.913   7.292  24.041  0.00  0.00    +0.239 C 
ATOM      2  N   VAL A   2      14.910   6.001  24.183  0.00  0.00    -0.298 N 
ATOM      3  H   VAL A   2      15.757   5.495  24.511  0.00  0.00    +0.150 HD
ATOM      4  O   CYS A   1      13.889   7.984  24.001  0.00  0.00    -0.274 OA
ENDROOT
BRANCH   1   5
ATOM      5  CA  CYS A   1      16.262   7.917  23.881  0.00  0.00    +0.156 C 
BRANCH   5   6
ATOM      6  N   CYS A   1      17.343   6.916  24.005  0.00  0.00    -0.237 NA
ATOM      7  H   CYS A   1      17.370   6.125  23.330  0.00  0.00    +0.142 HD
ENDBRANCH   5   6
BRANCH   5   8
ATOM      8  CB  CYS A   1      16.174   8.525  22.465  0.00  0.00    +0.095 C 
ATOM      9  SG  CYS A   1      17.681   8.951  21.658  0.00  0.00    -0.080 S 
ENDBRANCH   5   8
ENDBRANCH   1   5
BRANCH   2  10
ATOM     10  CA  VAL A   2      13.638   5.260  23.856  0.00  0.00    +0.137 C 
BRANCH  10  11
ATOM     11  CB  VAL A   2      13.916   3.952  23.104  0.00  0.00    +0.026 C 
ATOM     12  CG2 VAL A   2      12.620   3.268  22.650  0.00  0.00    +0.002 C 
ATOM     13  CG1 VAL A   2      14.636   4.243  21.776  0.00  0.00    +0.002 C 
ENDBRANCH  10  11
BRANCH  10  14
ATOM     14  C   VAL A   2      12.866   4.828  25.106  0.00  0.00    +0.227 C 
ATOM     15  O   VAL A   2      13.373   4.132  25.969  0.00  0.00    -0.286 OA
ENDBRANCH  10  14
ENDBRANCH   2  10
TORSDOF 6
REMARK  Name = ../refined-set-2016/4q99/4q99_pocket.pdb
REMARK  130 active torsions:
REMARK  status: ('A' for Active; 'I' for Inactive)
REMARK    1  A    between atoms: _1  and  _3
REMARK    2  A    between atoms: _3  and  _4
REMARK    3  A    between atoms: _3  and  _6
REMARK    4  A    between atoms: _6  and  _7
REMARK    5  A    between atoms: _17  and  _19
REMARK    6  A    between atoms: _19  and  _20
REMARK    7  A    between atoms: _19  and  _22
REMARK    8  A    between atoms: _22  and  _23
REMARK    9  A    between atoms: _28  and  _29
REMARK   10  A    between atoms: _31  and  _33
REMARK   11  A    between atoms: _33  and  _34
REMARK   12  A    between atoms: _33  and  _36
REMARK   13  A    between atoms: _36  and  _37
REMARK   14  A    between atoms: _39  and  _41
REMARK   15  A    between atoms: _41  and  _42
REMARK   16  A    between atoms: _41  and  _44
REMARK   17  A    between atoms: _44  and  _45
REMARK   18  A    between atoms: _50  and  _52
REMARK   19  A    between atoms: _52  and  _53
REMARK   20  A    between atoms: _52  and  _55
REMARK   21  A    between atoms: _55  and  _56
REMARK   22  A    between atoms: _61  and  _63
REMARK   23  A    between atoms: _63  and  _64
REMARK   24  A    between atoms: _63  and  _66
REMARK   25  A    between atoms: _66  and  _67
REMARK   26  A    between atoms: _70  and  _72
REMARK   27  A    between atoms: _72  and  _73
REMARK   28  A    between atoms: _72  and  _75
REMARK   29  A    between atoms: _75  and  _76
REMARK   30  A    between atoms: _76  and  _77
REMARK   31  A    between atoms: _82  and  _84
REMARK   32  A    between atoms: _95  and  _98
REMARK   33  A    between atoms: _98  and  _99
REMARK   34  A    between atoms: _107  and  _108
REMARK   35  A    between atoms: _116  and  _118
REMARK   36  A    between atoms: _118  and  _119
REMARK   37  A    between atoms: _118  and  _121
REMARK   38  A    between atoms: _121  and  _122
REMARK   39  A    between atoms: _122  and  _123
REMARK   40  A    between atoms: _126  and  _128
REMARK   41  A    between atoms: _128  and  _129
REMARK   42  A    between atoms: _128  and  _131
REMARK   43  A    between atoms: _131  and  _132
REMARK   44  A    between atoms: _137  and  _139
REMARK   45  A    between atoms: _139  and  _140
REMARK   46  A    between atoms: _139  and  _142
REMARK   47  A    between atoms: _142  and  _143
REMARK   48  A    between atoms: _143  and  _144
REMARK   49  A    between atoms: _147  and  _149
REMARK   50  A    between atoms: _149  and  _150
REMARK   51  A    between atoms: _149  and  _152
REMARK   52  A    between atoms: _152  and  _153
REMARK   53  A    between atoms: _154  and  ZN_364
REMARK   54  A    between atoms: _158  and  _160
REMARK   55  A    between atoms: _160  and  _161
REMARK   56  A    between atoms: _160  and  _163
REMARK   57  A    between atoms: _163  and  _164
REMARK   58  A    between atoms: _167  and  _169
REMARK   59  A    between atoms: _169  and  _170
REMARK   60  A    between atoms: _169  and  _172
REMARK   61  A    between atoms: _175  and  _177
REMARK   62  A    between atoms: _177  and  _178
REMARK   63  A    between atoms: _177  and  _180
REMARK   64  A    between atoms: _180  and  _181
REMARK   65  A    between atoms: _186  and  _188
REMARK   66  A    between atoms: _188  and  _189
REMARK   67  A    between atoms: _188  and  _191
REMARK   68  A    between atoms: _191  and  _192
REMARK   69  A    between atoms: _198  and  _200
REMARK   70  A    between atoms: _200  and  _201
REMARK   71  A    between atoms: _200  and  _203
REMARK   72  A    between atoms: _206  and  _208
REMARK   73  A    between atoms: _208  and  _209
REMARK   74  A    between atoms: _208  and  _211
REMARK   75  A    between atoms: _211  and  _212
REMARK   76  A    between atoms: _215  and  _217
REMARK   77  A    between atoms: _217  and  _218
REMARK   78  A    between atoms: _221  and  _223
REMARK   79  A    between atoms: _223  and  _224
REMARK   80  A    between atoms: _223  and  _226
REMARK   81  A    between atoms: _229  and  _231
REMARK   82  A    between atoms: _231  and  _232
REMARK   83  A    between atoms: _231  and  _234
REMARK   84  A    between atoms: _234  and  _235
REMARK   85  A    between atoms: _238  and  _240
REMARK   86  A    between atoms: _240  and  _241
REMARK   87  A    between atoms: _240  and  _243
REMARK   88  A    between atoms: _243  and  _244
REMARK   89  A    between atoms: _246  and  _248
REMARK   90  A    between atoms: _248  and  _249
REMARK   91  A    between atoms: _248  and  _251
REMARK   92  A    between atoms: _251  and  _252
REMARK   93  A    between atoms: _255  and  _257
REMARK   94  A    between atoms: _257  and  _258
REMARK   95  A    between atoms: _257  and  _260
REMARK   96  A    between atoms: _260  and  _261
REMARK   97  A    between atoms: _264  and  _266
REMARK   98  A    between atoms: _266  and  _267
REMARK   99  A    between atoms: _266  and  _269
REMARK  100  A    between atoms: _269  and  _270
REMARK  101  A    between atoms: _274  and  _275
REMARK  102  A    between atoms: _281  and  _282
REMARK  103  A    between atoms: _287  and  _289
REMARK  104  A    between atoms: _289  and  _290
REMARK  105  A    between atoms: _289  and  _292
REMARK  106  A    between atoms: _292  and  _293
REMARK  107  A    between atoms: _296  and  _298
REMARK  108  A    between atoms: _298  and  _299
REMARK  109  A    between atoms: _298  and  _301
REMARK  110  A    between atoms: _301  and  _302
REMARK  111  A    between atoms: _305  and  _307
REMARK  112  A    between atoms: _307  and  _308
REMARK  113  A    between atoms: _307  and  _310
REMARK  114  A    between atoms: _312  and  _314
REMARK  115  A    between atoms: _314  and  _315
REMARK  116  A    between atoms: _314  and  _317
REMARK  117  A    between atoms: _320  and  _322
REMARK  118  A    between atoms: _322  and  _323
REMARK  119  A    between atoms: _322  and  _325
REMARK  120  A    between atoms: _325  and  _326
REMARK  121  A    between atoms: _336  and  _338
REMARK  122  A    between atoms: _338  and  _339
REMARK  123  A    between atoms: _338  and  _341
REMARK  124  A    between atoms: _341  and  _342
REMARK  125  A    between atoms: _347  and  _349
REMARK  126  A    between atoms: _349  and  _350
REMARK  127  A    between atoms: _349  and  _352
REMARK  128  A    between atoms: _352  and  _353
REMARK  129  A    between atoms: _353  and  _354
REMARK  130  A    between atoms: _354  and  _355
REMARK                            x       y       z     vdW  Elec       q    Type
REMARK                         _______ _______ _______ _____ _____    ______ ____
ROOT
ATOM      1  CG  TRP A   1      12.151  -0.216  24.192  0.00  0.00    -0.002 A 
ATOM      2  CD1 TRP A   1      13.390   0.299  24.439  0.00  0.00    +0.068 A 
ATOM      3  NE1 TRP A   1      14.127   0.298  23.250  0.00  0.00    -0.352 N 
ATOM      4  HE1 TRP A   1      15.078   0.703  23.138  0.00  0.00    +0.166 HD
ATOM      5  CE2 TRP A   1      13.402  -0.324  22.241  0.00  0.00    +0.056 A 
ATOM      6  CZ2 TRP A   1      13.705  -0.554  20.895  0.00  0.00    +0.017 A 
ATOM      7  CH2 TRP A   1      12.711  -1.169  20.116  0.00  0.00    +0.001 A 
ATOM      8  CZ3 TRP A   1      11.442  -1.481  20.703  0.00  0.00    +0.000 A 
ATOM      9  CE3 TRP A   1      11.162  -1.224  22.003  0.00  0.00    +0.001 A 
ATOM     10  CD2 TRP A   1      12.133  -0.646  22.815  0.00  0.00    +0.013 A 
ENDROOT
BRANCH   1  11
ATOM     11  CB  TRP A   1      10.995  -0.310  25.143  0.00  0.00    +0.053 C 
BRANCH  11  12
ATOM     12  CA  TRP A   1      10.007   0.860  24.946  0.00  0.00    +0.137 C 
BRANCH  12  13
ATOM     13  N   TRP A   1      10.457   2.064  25.661  0.00  0.00    -0.239 NA
ATOM     14  H   TRP A   1      11.054   1.964  26.507  0.00  0.00    +0.142 HD
ENDBRANCH  12  13
BRANCH  12  15
ATOM     15  C   TRP A   1       8.670   0.435  25.454  0.00  0.00    +0.224 C 
ATOM     16  O   TRP A   1       8.441   0.412  26.661  0.00  0.00    -0.287 OA
ENDBRANCH  12  15
ENDBRANCH  11  12
ENDBRANCH   1  11
TORSDOF 4
REMARK  Name = ../refined-set-2016/4q99/4q99_pocket.pdb
REMARK  130 active torsions:
REMARK  status: ('A' for Active; 'I' for Inactive)
REMARK    1  A    between atoms: _1  and  _3
REMARK    2  A    between atoms: _3  and  _4
REMARK    3  A    between atoms: _3  and  _6
REMARK    4  A    between atoms: _6  and  _7
REMARK    5  A    between atoms: _17  and  _19
REMARK    6  A    between atoms: _19  and  _20
REMARK    7  A    between atoms: _19  and  _22
REMARK    8  A    between atoms: _22  and  _23
REMARK    9  A    between atoms: _28  and  _29
REMARK   10  A    between atoms: _31  and  _33
REMARK   11  A    between atoms: _33  and  _34
REMARK   12  A    between atoms: _33  and  _36
REMARK   13  A    between atoms: _36  and  _37
REMARK   14  A    between atoms: _39  and  _41
REMARK   15  A    between atoms: _41  and  _42
REMARK   16  A    between atoms: _41  and  _44
REMARK   17  A    between atoms: _44  and  _45
REMARK   18  A    between atoms: _50  and  _52
REMARK   19  A    between atoms: _52  and  _53
REMARK   20  A    between atoms: _52  and  _55
REMARK   21  A    between atoms: _55  and  _56
REMARK   22  A    between atoms: _61  and  _63
REMARK   23  A    between atoms: _63  and  _64
REMARK   24  A    between atoms: _63  and  _66
REMARK   25  A    between atoms: _66  and  _67
REMARK   26  A    between atoms: _70  and  _72
REMARK   27  A    between atoms: _72  and  _73
REMARK   28  A    between atoms: _72  and  _75
REMARK   29  A    between atoms: _75  and  _76
REMARK   30  A    between atoms: _76  and  _77
REMARK   31  A    between atoms: _82  and  _84
REMARK   32  A    between atoms: _95  and  _98
REMARK   33  A    between atoms: _98  and  _99
REMARK   34  A    between atoms: _107  and  _108
REMARK   35  A    between atoms: _116  and  _118
REMARK   36  A    between atoms: _118  and  _119
REMARK   37  A    between atoms: _118  and  _121
REMARK   38  A    between atoms: _121  and  _122
REMARK   39  A    between atoms: _122  and  _123
REMARK   40  A    between atoms: _126  and  _128
REMARK   41  A    between atoms: _128  and  _129
REMARK   42  A    between atoms: _128  and  _131
REMARK   43  A    between atoms: _131  and  _132
REMARK   44  A    between atoms: _137  and  _139
REMARK   45  A    between atoms: _139  and  _140
REMARK   46  A    between atoms: _139  and  _142
REMARK   47  A    between atoms: _142  and  _143
REMARK   48  A    between atoms: _143  and  _144
REMARK   49  A    between atoms: _147  and  _149
REMARK   50  A    between atoms: _149  and  _150
REMARK   51  A    between atoms: _149  and  _152
REMARK   52  A    between atoms: _152  and  _153
REMARK   53  A    between atoms: _154  and  ZN_364
REMARK   54  A    between atoms: _158  and  _160
REMARK   55  A    between atoms: _160  and  _161
REMARK   56  A    between atoms: _160  and  _163
REMARK   57  A    between atoms: _163  and  _164
REMARK   58  A    between atoms: _167  and  _169
REMARK   59  A    between atoms: _169  and  _170
REMARK   60  A    between atoms: _169  and  _172
REMARK   61  A    between atoms: _175  and  _177
REMARK   62  A    between atoms: _177  and  _178
REMARK   63  A    between atoms: _177  and  _180
REMARK   64  A    between atoms: _180  and  _181
REMARK   65  A    between atoms: _186  and  _188
REMARK   66  A    between atoms: _188  and  _189
REMARK   67  A    between atoms: _188  and  _191
REMARK   68  A    between atoms: _191  and  _192
REMARK   69  A    between atoms: _198  and  _200
REMARK   70  A    between atoms: _200  and  _201
REMARK   71  A    between atoms: _200  and  _203
REMARK   72  A    between atoms: _206  and  _208
REMARK   73  A    between atoms: _208  and  _209
REMARK   74  A    between atoms: _208  and  _211
REMARK   75  A    between atoms: _211  and  _212
REMARK   76  A    between atoms: _215  and  _217
REMARK   77  A    between atoms: _217  and  _218
REMARK   78  A    between atoms: _221  and  _223
REMARK   79  A    between atoms: _223  and  _224
REMARK   80  A    between atoms: _223  and  _226
REMARK   81  A    between atoms: _229  and  _231
REMARK   82  A    between atoms: _231  and  _232
REMARK   83  A    between atoms: _231  and  _234
REMARK   84  A    between atoms: _234  and  _235
REMARK   85  A    between atoms: _238  and  _240
REMARK   86  A    between atoms: _240  and  _241
REMARK   87  A    between atoms: _240  and  _243
REMARK   88  A    between atoms: _243  and  _244
REMARK   89  A    between atoms: _246  and  _248
REMARK   90  A    between atoms: _248  and  _249
REMARK   91  A    between atoms: _248  and  _251
REMARK   92  A    between atoms: _251  and  _252
REMARK   93  A    between atoms: _255  and  _257
REMARK   94  A    between atoms: _257  and  _258
REMARK   95  A    between atoms: _257  and  _260
REMARK   96  A    between atoms: _260  and  _261
REMARK   97  A    between atoms: _264  and  _266
REMARK   98  A    between atoms: _266  and  _267
REMARK   99  A    between atoms: _266  and  _269
REMARK  100  A    between atoms: _269  and  _270
REMARK  101  A    between atoms: _274  and  _275
REMARK  102  A    between atoms: _281  and  _282
REMARK  103  A    between atoms: _287  and  _289
REMARK  104  A    between atoms: _289  and  _290
REMARK  105  A    between atoms: _289  and  _292
REMARK  106  A    between atoms: _292  and  _293
REMARK  107  A    between atoms: _296  and  _298
REMARK  108  A    between atoms: _298  and  _299
REMARK  109  A    between atoms: _298  and  _301
REMARK  110  A    between atoms: _301  and  _302
REMARK  111  A    between atoms: _305  and  _307
REMARK  112  A    between atoms: _307  and  _308
REMARK  113  A    between atoms: _307  and  _310
REMARK  114  A    between atoms: _312  and  _314
REMARK  115  A    between atoms: _314  and  _315
REMARK  116  A    between atoms: _314  and  _317
REMARK  117  A    between atoms: _320  and  _322
REMARK  118  A    between atoms: _322  and  _323
REMARK  119  A    between atoms: _322  and  _325
REMARK  120  A    between atoms: _325  and  _326
REMARK  121  A    between atoms: _336  and  _338
REMARK  122  A    between atoms: _338  and  _339
REMARK  123  A    between atoms: _338  and  _341
REMARK  124  A    between atoms: _341  and  _342
REMARK  125  A    between atoms: _347  and  _349
REMARK  126  A    between atoms: _349  and  _350
REMARK  127  A    between atoms: _349  and  _352
REMARK  128  A    between atoms: _352  and  _353
REMARK  129  A    between atoms: _353  and  _354
REMARK  130  A    between atoms: _354  and  _355
REMARK                            x       y       z     vdW  Elec       q    Type
REMARK                         _______ _______ _______ _____ _____    ______ ____
ROOT
ATOM      1  CB  ASN A   1      19.069  -7.469  10.475  0.00  0.00    +0.110 C 
ENDROOT
BRANCH   1   2
ATOM      2  CG  ASN A   1      17.583  -7.664  10.128  0.00  0.00    +0.221 C 
ATOM      3  OD1 ASN A   1      16.923  -8.523  10.696  0.00  0.00    -0.275 OA
ATOM      4  ND2 ASN A   1      17.029  -6.758   9.295  0.00  0.00    -0.329 N 
ATOM      5 HD21 ASN A   1      16.005  -6.774   9.116  0.00  0.00    +0.145 HD
ATOM      6 HD22 ASN A   1      17.627  -6.044   8.832  0.00  0.00    +0.145 HD
ENDBRANCH   1   2
BRANCH   1   7
ATOM      7  CA  ASN A   1      19.555  -8.358  11.629  0.00  0.00    +0.142 C 
BRANCH   7   8
ATOM      8  N   ASN A   1      19.247  -9.784  11.337  0.00  0.00    -0.239 NA
ATOM      9  H   ASN A   1      18.333 -10.047  10.916  0.00  0.00    +0.142 HD
ENDBRANCH   7   8
BRANCH   7  10
ATOM     10  C   ASN A   1      18.962  -7.972  12.989  0.00  0.00    +0.225 C 
ATOM     11  O   ASN A   1      18.291  -6.935  13.086  0.00  0.00    -0.287 OA
ENDBRANCH   7  10
ENDBRANCH   1   7
TORSDOF 4
REMARK  Name = ../refined-set-2016/4q99/4q99_pocket.pdb
REMARK  130 active torsions:
REMARK  status: ('A' for Active; 'I' for Inactive)
REMARK    1  A    between atoms: _1  and  _3
REMARK    2  A    between atoms: _3  and  _4
REMARK    3  A    between atoms: _3  and  _6
REMARK    4  A    between atoms: _6  and  _7
REMARK    5  A    between atoms: _17  and  _19
REMARK    6  A    between atoms: _19  and  _20
REMARK    7  A    between atoms: _19  and  _22
REMARK    8  A    between atoms: _22  and  _23
REMARK    9  A    between atoms: _28  and  _29
REMARK   10  A    between atoms: _31  and  _33
REMARK   11  A    between atoms: _33  and  _34
REMARK   12  A    between atoms: _33  and  _36
REMARK   13  A    between atoms: _36  and  _37
REMARK   14  A    between atoms: _39  and  _41
REMARK   15  A    between atoms: _41  and  _42
REMARK   16  A    between atoms: _41  and  _44
REMARK   17  A    between atoms: _44  and  _45
REMARK   18  A    between atoms: _50  and  _52
REMARK   19  A    between atoms: _52  and  _53
REMARK   20  A    between atoms: _52  and  _55
REMARK   21  A    between atoms: _55  and  _56
REMARK   22  A    between atoms: _61  and  _63
REMARK   23  A    between atoms: _63  and  _64
REMARK   24  A    between atoms: _63  and  _66
REMARK   25  A    between atoms: _66  and  _67
REMARK   26  A    between atoms: _70  and  _72
REMARK   27  A    between atoms: _72  and  _73
REMARK   28  A    between atoms: _72  and  _75
REMARK   29  A    between atoms: _75  and  _76
REMARK   30  A    between atoms: _76  and  _77
REMARK   31  A    between atoms: _82  and  _84
REMARK   32  A    between atoms: _95  and  _98
REMARK   33  A    between atoms: _98  and  _99
REMARK   34  A    between atoms: _107  and  _108
REMARK   35  A    between atoms: _116  and  _118
REMARK   36  A    between atoms: _118  and  _119
REMARK   37  A    between atoms: _118  and  _121
REMARK   38  A    between atoms: _121  and  _122
REMARK   39  A    between atoms: _122  and  _123
REMARK   40  A    between atoms: _126  and  _128
REMARK   41  A    between atoms: _128  and  _129
REMARK   42  A    between atoms: _128  and  _131
REMARK   43  A    between atoms: _131  and  _132
REMARK   44  A    between atoms: _137  and  _139
REMARK   45  A    between atoms: _139  and  _140
REMARK   46  A    between atoms: _139  and  _142
REMARK   47  A    between atoms: _142  and  _143
REMARK   48  A    between atoms: _143  and  _144
REMARK   49  A    between atoms: _147  and  _149
REMARK   50  A    between atoms: _149  and  _150
REMARK   51  A    between atoms: _149  and  _152
REMARK   52  A    between atoms: _152  and  _153
REMARK   53  A    between atoms: _154  and  ZN_364
REMARK   54  A    between atoms: _158  and  _160
REMARK   55  A    between atoms: _160  and  _161
REMARK   56  A    between atoms: _160  and  _163
REMARK   57  A    between atoms: _163  and  _164
REMARK   58  A    between atoms: _167  and  _169
REMARK   59  A    between atoms: _169  and  _170
REMARK   60  A    between atoms: _169  and  _172
REMARK   61  A    between atoms: _175  and  _177
REMARK   62  A    between atoms: _177  and  _178
REMARK   63  A    between atoms: _177  and  _180
REMARK   64  A    between atoms: _180  and  _181
REMARK   65  A    between atoms: _186  and  _188
REMARK   66  A    between atoms: _188  and  _189
REMARK   67  A    between atoms: _188  and  _191
REMARK   68  A    between atoms: _191  and  _192
REMARK   69  A    between atoms: _198  and  _200
REMARK   70  A    between atoms: _200  and  _201
REMARK   71  A    between atoms: _200  and  _203
REMARK   72  A    between atoms: _206  and  _208
REMARK   73  A    between atoms: _208  and  _209
REMARK   74  A    between atoms: _208  and  _211
REMARK   75  A    between atoms: _211  and  _212
REMARK   76  A    between atoms: _215  and  _217
REMARK   77  A    between atoms: _217  and  _218
REMARK   78  A    between atoms: _221  and  _223
REMARK   79  A    between atoms: _223  and  _224
REMARK   80  A    between atoms: _223  and  _226
REMARK   81  A    between atoms: _229  and  _231
REMARK   82  A    between atoms: _231  and  _232
REMARK   83  A    between atoms: _231  and  _234
REMARK   84  A    between atoms: _234  and  _235
REMARK   85  A    between atoms: _238  and  _240
REMARK   86  A    between atoms: _240  and  _241
REMARK   87  A    between atoms: _240  and  _243
REMARK   88  A    between atoms: _243  and  _244
REMARK   89  A    between atoms: _246  and  _248
REMARK   90  A    between atoms: _248  and  _249
REMARK   91  A    between atoms: _248  and  _251
REMARK   92  A    between atoms: _251  and  _252
REMARK   93  A    between atoms: _255  and  _257
REMARK   94  A    between atoms: _257  and  _258
REMARK   95  A    between atoms: _257  and  _260
REMARK   96  A    between atoms: _260  and  _261
REMARK   97  A    between atoms: _264  and  _266
REMARK   98  A    between atoms: _266  and  _267
REMARK   99  A    between atoms: _266  and  _269
REMARK  100  A    between atoms: _269  and  _270
REMARK  101  A    between atoms: _274  and  _275
REMARK  102  A    between atoms: _281  and  _282
REMARK  103  A    between atoms: _287  and  _289
REMARK  104  A    between atoms: _289  and  _290
REMARK  105  A    between atoms: _289  and  _292
REMARK  106  A    between atoms: _292  and  _293
REMARK  107  A    between atoms: _296  and  _298
REMARK  108  A    between atoms: _298  and  _299
REMARK  109  A    between atoms: _298  and  _301
REMARK  110  A    between atoms: _301  and  _302
REMARK  111  A    between atoms: _305  and  _307
REMARK  112  A    between atoms: _307  and  _308
REMARK  113  A    between atoms: _307  and  _310
REMARK  114  A    between atoms: _312  and  _314
REMARK  115  A    between atoms: _314  and  _315
REMARK  116  A    between atoms: _314  and  _317
REMARK  117  A    between atoms: _320  and  _322
REMARK  118  A    between atoms: _322  and  _323
REMARK  119  A    between atoms: _322  and  _325
REMARK  120  A    between atoms: _325  and  _326
REMARK  121  A    between atoms: _336  and  _338
REMARK  122  A    between atoms: _338  and  _339
REMARK  123  A    between atoms: _338  and  _341
REMARK  124  A    between atoms: _341  and  _342
REMARK  125  A    between atoms: _347  and  _349
REMARK  126  A    between atoms: _349  and  _350
REMARK  127  A    between atoms: _349  and  _352
REMARK  128  A    between atoms: _352  and  _353
REMARK  129  A    between atoms: _353  and  _354
REMARK  130  A    between atoms: _354  and  _355
REMARK                            x       y       z     vdW  Elec       q    Type
REMARK                         _______ _______ _______ _____ _____    ______ ____
ROOT
ATOM      1  NE  ARG A   1      23.339  -4.109  21.165  0.00  0.00    +0.330 N 
ATOM      2  CZ  ARG A   1      23.505  -3.102  22.012  0.00  0.00    +0.000 C 
ATOM      3  NH2 ARG A   1      24.753  -2.857  22.465  0.00  0.00    +0.330 N 
ATOM      4 HH21 ARG A   1      24.921  -2.075  23.130  0.00  0.00    +0.000 HD
ATOM      5 HH22 ARG A   1      25.547  -3.450  22.149  0.00  0.00    +0.000 HD
ATOM      6  NH1 ARG A   1      22.519  -2.274  22.367  0.00  0.00    +0.330 N 
ATOM      7 HH11 ARG A   1      22.706  -1.500  23.036  0.00  0.00    +0.000 HD
ATOM      8 HH12 ARG A   1      21.565  -2.403  21.974  0.00  0.00    +0.000 HD
ATOM      9  HE  ARG A   1      24.156  -4.719  20.960  0.00  0.00    +0.000 HD
ENDROOT
BRANCH   1  10
ATOM     10  CD  ARG A   1      22.049  -4.414  20.492  0.00  0.00    +0.000 C 
BRANCH  10  11
ATOM     11  CG  ARG A   1      22.159  -5.829  19.848  0.00  0.00    +0.000 C 
BRANCH  11  12
ATOM     12  CB  ARG A   1      21.033  -6.082  18.825  0.00  0.00    +0.000 C 
BRANCH  12  13
ATOM     13  CA  ARG A   1      20.975  -7.537  18.335  0.00  0.00    +0.000 C 
BRANCH  13  14
ATOM     14  N   ARG A   1      19.991  -7.576  17.244  0.00  0.00    +0.000 NA
ATOM     15  H   ARG A   1      19.207  -6.892  17.243  0.00  0.00    +0.000 HD
ENDBRANCH  13  14
BRANCH  13  16
ATOM     16  C   ARG A   1      20.516  -8.384  19.485  0.00  0.00    +0.000 C 
ATOM     17  O   ARG A   1      19.289  -8.390  19.776  0.00  0.00    +0.000 OA
ENDBRANCH  13  16
ENDBRANCH  12  13
ENDBRANCH  11  12
ENDBRANCH  10  11
ENDBRANCH   1  10
TORSDOF 6
REMARK  Name = ../refined-set-2016/4q99/4q99_pocket.pdb
REMARK  130 active torsions:
REMARK  status: ('A' for Active; 'I' for Inactive)
REMARK    1  A    between atoms: _1  and  _3
REMARK    2  A    between atoms: _3  and  _4
REMARK    3  A    between atoms: _3  and  _6
REMARK    4  A    between atoms: _6  and  _7
REMARK    5  A    between atoms: _17  and  _19
REMARK    6  A    between atoms: _19  and  _20
REMARK    7  A    between atoms: _19  and  _22
REMARK    8  A    between atoms: _22  and  _23
REMARK    9  A    between atoms: _28  and  _29
REMARK   10  A    between atoms: _31  and  _33
REMARK   11  A    between atoms: _33  and  _34
REMARK   12  A    between atoms: _33  and  _36
REMARK   13  A    between atoms: _36  and  _37
REMARK   14  A    between atoms: _39  and  _41
REMARK   15  A    between atoms: _41  and  _42
REMARK   16  A    between atoms: _41  and  _44
REMARK   17  A    between atoms: _44  and  _45
REMARK   18  A    between atoms: _50  and  _52
REMARK   19  A    between atoms: _52  and  _53
REMARK   20  A    between atoms: _52  and  _55
REMARK   21  A    between atoms: _55  and  _56
REMARK   22  A    between atoms: _61  and  _63
REMARK   23  A    between atoms: _63  and  _64
REMARK   24  A    between atoms: _63  and  _66
REMARK   25  A    between atoms: _66  and  _67
REMARK   26  A    between atoms: _70  and  _72
REMARK   27  A    between atoms: _72  and  _73
REMARK   28  A    between atoms: _72  and  _75
REMARK   29  A    between atoms: _75  and  _76
REMARK   30  A    between atoms: _76  and  _77
REMARK   31  A    between atoms: _82  and  _84
REMARK   32  A    between atoms: _95  and  _98
REMARK   33  A    between atoms: _98  and  _99
REMARK   34  A    between atoms: _107  and  _108
REMARK   35  A    between atoms: _116  and  _118
REMARK   36  A    between atoms: _118  and  _119
REMARK   37  A    between atoms: _118  and  _121
REMARK   38  A    between atoms: _121  and  _122
REMARK   39  A    between atoms: _122  and  _123
REMARK   40  A    between atoms: _126  and  _128
REMARK   41  A    between atoms: _128  and  _129
REMARK   42  A    between atoms: _128  and  _131
REMARK   43  A    between atoms: _131  and  _132
REMARK   44  A    between atoms: _137  and  _139
REMARK   45  A    between atoms: _139  and  _140
REMARK   46  A    between atoms: _139  and  _142
REMARK   47  A    between atoms: _142  and  _143
REMARK   48  A    between atoms: _143  and  _144
REMARK   49  A    between atoms: _147  and  _149
REMARK   50  A    between atoms: _149  and  _150
REMARK   51  A    between atoms: _149  and  _152
REMARK   52  A    between atoms: _152  and  _153
REMARK   53  A    between atoms: _154  and  ZN_364
REMARK   54  A    between atoms: _158  and  _160
REMARK   55  A    between atoms: _160  and  _161
REMARK   56  A    between atoms: _160  and  _163
REMARK   57  A    between atoms: _163  and  _164
REMARK   58  A    between atoms: _167  and  _169
REMARK   59  A    between atoms: _169  and  _170
REMARK   60  A    between atoms: _169  and  _172
REMARK   61  A    between atoms: _175  and  _177
REMARK   62  A    between atoms: _177  and  _178
REMARK   63  A    between atoms: _177  and  _180
REMARK   64  A    between atoms: _180  and  _181
REMARK   65  A    between atoms: _186  and  _188
REMARK   66  A    between atoms: _188  and  _189
REMARK   67  A    between atoms: _188  and  _191
REMARK   68  A    between atoms: _191  and  _192
REMARK   69  A    between atoms: _198  and  _200
REMARK   70  A    between atoms: _200  and  _201
REMARK   71  A    between atoms: _200  and  _203
REMARK   72  A    between atoms: _206  and  _208
REMARK   73  A    between atoms: _208  and  _209
REMARK   74  A    between atoms: _208  and  _211
REMARK   75  A    between atoms: _211  and  _212
REMARK   76  A    between atoms: _215  and  _217
REMARK   77  A    between atoms: _217  and  _218
REMARK   78  A    between atoms: _221  and  _223
REMARK   79  A    between atoms: _223  and  _224
REMARK   80  A    between atoms: _223  and  _226
REMARK   81  A    between atoms: _229  and  _231
REMARK   82  A    between atoms: _231  and  _232
REMARK   83  A    between atoms: _231  and  _234
REMARK   84  A    between atoms: _234  and  _235
REMARK   85  A    between atoms: _238  and  _240
REMARK   86  A    between atoms: _240  and  _241
REMARK   87  A    between atoms: _240  and  _243
REMARK   88  A    between atoms: _243  and  _244
REMARK   89  A    between atoms: _246  and  _248
REMARK   90  A    between atoms: _248  and  _249
REMARK   91  A    between atoms: _248  and  _251
REMARK   92  A    between atoms: _251  and  _252
REMARK   93  A    between atoms: _255  and  _257
REMARK   94  A    between atoms: _257  and  _258
REMARK   95  A    between atoms: _257  and  _260
REMARK   96  A    between atoms: _260  and  _261
REMARK   97  A    between atoms: _264  and  _266
REMARK   98  A    between atoms: _266  and  _267
REMARK   99  A    between atoms: _266  and  _269
REMARK  100  A    between atoms: _269  and  _270
REMARK  101  A    between atoms: _274  and  _275
REMARK  102  A    between atoms: _281  and  _282
REMARK  103  A    between atoms: _287  and  _289
REMARK  104  A    between atoms: _289  and  _290
REMARK  105  A    between atoms: _289  and  _292
REMARK  106  A    between atoms: _292  and  _293
REMARK  107  A    between atoms: _296  and  _298
REMARK  108  A    between atoms: _298  and  _299
REMARK  109  A    between atoms: _298  and  _301
REMARK  110  A    between atoms: _301  and  _302
REMARK  111  A    between atoms: _305  and  _307
REMARK  112  A    between atoms: _307  and  _308
REMARK  113  A    between atoms: _307  and  _310
REMARK  114  A    between atoms: _312  and  _314
REMARK  115  A    between atoms: _314  and  _315
REMARK  116  A    between atoms: _314  and  _317
REMARK  117  A    between atoms: _320  and  _322
REMARK  118  A    between atoms: _322  and  _323
REMARK  119  A    between atoms: _322  and  _325
REMARK  120  A    between atoms: _325  and  _326
REMARK  121  A    between atoms: _336  and  _338
REMARK  122  A    between atoms: _338  and  _339
REMARK  123  A    between atoms: _338  and  _341
REMARK  124  A    between atoms: _341  and  _342
REMARK  125  A    between atoms: _347  and  _349
REMARK  126  A    between atoms: _349  and  _350
REMARK  127  A    between atoms: _349  and  _352
REMARK  128  A    between atoms: _352  and  _353
REMARK  129  A    between atoms: _353  and  _354
REMARK  130  A    between atoms: _354  and  _355
REMARK                            x       y       z     vdW  Elec       q    Type
REMARK                         _______ _______ _______ _____ _____    ______ ____
ROOT
ATOM      1  O   HOH     1      19.765  -4.465  15.695  0.00  0.00    +0.000 OA
ENDROOT
TORSDOF 0
REMARK  Name = ../refined-set-2016/4q99/4q99_pocket.pdb
REMARK  130 active torsions:
REMARK  status: ('A' for Active; 'I' for Inactive)
REMARK    1  A    between atoms: _1  and  _3
REMARK    2  A    between atoms: _3  and  _4
REMARK    3  A    between atoms: _3  and  _6
REMARK    4  A    between atoms: _6  and  _7
REMARK    5  A    between atoms: _17  and  _19
REMARK    6  A    between atoms: _19  and  _20
REMARK    7  A    between atoms: _19  and  _22
REMARK    8  A    between atoms: _22  and  _23
REMARK    9  A    between atoms: _28  and  _29
REMARK   10  A    between atoms: _31  and  _33
REMARK   11  A    between atoms: _33  and  _34
REMARK   12  A    between atoms: _33  and  _36
REMARK   13  A    between atoms: _36  and  _37
REMARK   14  A    between atoms: _39  and  _41
REMARK   15  A    between atoms: _41  and  _42
REMARK   16  A    between atoms: _41  and  _44
REMARK   17  A    between atoms: _44  and  _45
REMARK   18  A    between atoms: _50  and  _52
REMARK   19  A    between atoms: _52  and  _53
REMARK   20  A    between atoms: _52  and  _55
REMARK   21  A    between atoms: _55  and  _56
REMARK   22  A    between atoms: _61  and  _63
REMARK   23  A    between atoms: _63  and  _64
REMARK   24  A    between atoms: _63  and  _66
REMARK   25  A    between atoms: _66  and  _67
REMARK   26  A    between atoms: _70  and  _72
REMARK   27  A    between atoms: _72  and  _73
REMARK   28  A    between atoms: _72  and  _75
REMARK   29  A    between atoms: _75  and  _76
REMARK   30  A    between atoms: _76  and  _77
REMARK   31  A    between atoms: _82  and  _84
REMARK   32  A    between atoms: _95  and  _98
REMARK   33  A    between atoms: _98  and  _99
REMARK   34  A    between atoms: _107  and  _108
REMARK   35  A    between atoms: _116  and  _118
REMARK   36  A    between atoms: _118  and  _119
REMARK   37  A    between atoms: _118  and  _121
REMARK   38  A    between atoms: _121  and  _122
REMARK   39  A    between atoms: _122  and  _123
REMARK   40  A    between atoms: _126  and  _128
REMARK   41  A    between atoms: _128  and  _129
REMARK   42  A    between atoms: _128  and  _131
REMARK   43  A    between atoms: _131  and  _132
REMARK   44  A    between atoms: _137  and  _139
REMARK   45  A    between atoms: _139  and  _140
REMARK   46  A    between atoms: _139  and  _142
REMARK   47  A    between atoms: _142  and  _143
REMARK   48  A    between atoms: _143  and  _144
REMARK   49  A    between atoms: _147  and  _149
REMARK   50  A    between atoms: _149  and  _150
REMARK   51  A    between atoms: _149  and  _152
REMARK   52  A    between atoms: _152  and  _153
REMARK   53  A    between atoms: _154  and  ZN_364
REMARK   54  A    between atoms: _158  and  _160
REMARK   55  A    between atoms: _160  and  _161
REMARK   56  A    between atoms: _160  and  _163
REMARK   57  A    between atoms: _163  and  _164
REMARK   58  A    between atoms: _167  and  _169
REMARK   59  A    between atoms: _169  and  _170
REMARK   60  A    between atoms: _169  and  _172
REMARK   61  A    between atoms: _175  and  _177
REMARK   62  A    between atoms: _177  and  _178
REMARK   63  A    between atoms: _177  and  _180
REMARK   64  A    between atoms: _180  and  _181
REMARK   65  A    between atoms: _186  and  _188
REMARK   66  A    between atoms: _188  and  _189
REMARK   67  A    between atoms: _188  and  _191
REMARK   68  A    between atoms: _191  and  _192
REMARK   69  A    between atoms: _198  and  _200
REMARK   70  A    between atoms: _200  and  _201
REMARK   71  A    between atoms: _200  and  _203
REMARK   72  A    between atoms: _206  and  _208
REMARK   73  A    between atoms: _208  and  _209
REMARK   74  A    between atoms: _208  and  _211
REMARK   75  A    between atoms: _211  and  _212
REMARK   76  A    between atoms: _215  and  _217
REMARK   77  A    between atoms: _217  and  _218
REMARK   78  A    between atoms: _221  and  _223
REMARK   79  A    between atoms: _223  and  _224
REMARK   80  A    between atoms: _223  and  _226
REMARK   81  A    between atoms: _229  and  _231
REMARK   82  A    between atoms: _231  and  _232
REMARK   83  A    between atoms: _231  and  _234
REMARK   84  A    between atoms: _234  and  _235
REMARK   85  A    between atoms: _238  and  _240
REMARK   86  A    between atoms: _240  and  _241
REMARK   87  A    between atoms: _240  and  _243
REMARK   88  A    between atoms: _243  and  _244
REMARK   89  A    between atoms: _246  and  _248
REMARK   90  A    between atoms: _248  and  _249
REMARK   91  A    between atoms: _248  and  _251
REMARK   92  A    between atoms: _251  and  _252
REMARK   93  A    between atoms: _255  and  _257
REMARK   94  A    between atoms: _257  and  _258
REMARK   95  A    between atoms: _257  and  _260
REMARK   96  A    between atoms: _260  and  _261
REMARK   97  A    between atoms: _264  and  _266
REMARK   98  A    between atoms: _266  and  _267
REMARK   99  A    between atoms: _266  and  _269
REMARK  100  A    between atoms: _269  and  _270
REMARK  101  A    between atoms: _274  and  _275
REMARK  102  A    between atoms: _281  and  _282
REMARK  103  A    between atoms: _287  and  _289
REMARK  104  A    between atoms: _289  and  _290
REMARK  105  A    between atoms: _289  and  _292
REMARK  106  A    between atoms: _292  and  _293
REMARK  107  A    between atoms: _296  and  _298
REMARK  108  A    between atoms: _298  and  _299
REMARK  109  A    between atoms: _298  and  _301
REMARK  110  A    between atoms: _301  and  _302
REMARK  111  A    between atoms: _305  and  _307
REMARK  112  A    between atoms: _307  and  _308
REMARK  113  A    between atoms: _307  and  _310
REMARK  114  A    between atoms: _312  and  _314
REMARK  115  A    between atoms: _314  and  _315
REMARK  116  A    between atoms: _314  and  _317
REMARK  117  A    between atoms: _320  and  _322
REMARK  118  A    between atoms: _322  and  _323
REMARK  119  A    between atoms: _322  and  _325
REMARK  120  A    between atoms: _325  and  _326
REMARK  121  A    between atoms: _336  and  _338
REMARK  122  A    between atoms: _338  and  _339
REMARK  123  A    between atoms: _338  and  _341
REMARK  124  A    between atoms: _341  and  _342
REMARK  125  A    between atoms: _347  and  _349
REMARK  126  A    between atoms: _349  and  _350
REMARK  127  A    between atoms: _349  and  _352
REMARK  128  A    between atoms: _352  and  _353
REMARK  129  A    between atoms: _353  and  _354
REMARK  130  A    between atoms: _354  and  _355
REMARK                            x       y       z     vdW  Elec       q    Type
REMARK                         _______ _______ _______ _____ _____    ______ ____
ROOT
ATOM      1  O   HOH     1      18.737  -3.332  11.319  0.00  0.00    +0.000 OA
ENDROOT
TORSDOF 0
REMARK  Name = ../refined-set-2016/4q99/4q99_pocket.pdb
REMARK  130 active torsions:
REMARK  status: ('A' for Active; 'I' for Inactive)
REMARK    1  A    between atoms: _1  and  _3
REMARK    2  A    between atoms: _3  and  _4
REMARK    3  A    between atoms: _3  and  _6
REMARK    4  A    between atoms: _6  and  _7
REMARK    5  A    between atoms: _17  and  _19
REMARK    6  A    between atoms: _19  and  _20
REMARK    7  A    between atoms: _19  and  _22
REMARK    8  A    between atoms: _22  and  _23
REMARK    9  A    between atoms: _28  and  _29
REMARK   10  A    between atoms: _31  and  _33
REMARK   11  A    between atoms: _33  and  _34
REMARK   12  A    between atoms: _33  and  _36
REMARK   13  A    between atoms: _36  and  _37
REMARK   14  A    between atoms: _39  and  _41
REMARK   15  A    between atoms: _41  and  _42
REMARK   16  A    between atoms: _41  and  _44
REMARK   17  A    between atoms: _44  and  _45
REMARK   18  A    between atoms: _50  and  _52
REMARK   19  A    between atoms: _52  and  _53
REMARK   20  A    between atoms: _52  and  _55
REMARK   21  A    between atoms: _55  and  _56
REMARK   22  A    between atoms: _61  and  _63
REMARK   23  A    between atoms: _63  and  _64
REMARK   24  A    between atoms: _63  and  _66
REMARK   25  A    between atoms: _66  and  _67
REMARK   26  A    between atoms: _70  and  _72
REMARK   27  A    between atoms: _72  and  _73
REMARK   28  A    between atoms: _72  and  _75
REMARK   29  A    between atoms: _75  and  _76
REMARK   30  A    between atoms: _76  and  _77
REMARK   31  A    between atoms: _82  and  _84
REMARK   32  A    between atoms: _95  and  _98
REMARK   33  A    between atoms: _98  and  _99
REMARK   34  A    between atoms: _107  and  _108
REMARK   35  A    between atoms: _116  and  _118
REMARK   36  A    between atoms: _118  and  _119
REMARK   37  A    between atoms: _118  and  _121
REMARK   38  A    between atoms: _121  and  _122
REMARK   39  A    between atoms: _122  and  _123
REMARK   40  A    between atoms: _126  and  _128
REMARK   41  A    between atoms: _128  and  _129
REMARK   42  A    between atoms: _128  and  _131
REMARK   43  A    between atoms: _131  and  _132
REMARK   44  A    between atoms: _137  and  _139
REMARK   45  A    between atoms: _139  and  _140
REMARK   46  A    between atoms: _139  and  _142
REMARK   47  A    between atoms: _142  and  _143
REMARK   48  A    between atoms: _143  and  _144
REMARK   49  A    between atoms: _147  and  _149
REMARK   50  A    between atoms: _149  and  _150
REMARK   51  A    between atoms: _149  and  _152
REMARK   52  A    between atoms: _152  and  _153
REMARK   53  A    between atoms: _154  and  ZN_364
REMARK   54  A    between atoms: _158  and  _160
REMARK   55  A    between atoms: _160  and  _161
REMARK   56  A    between atoms: _160  and  _163
REMARK   57  A    between atoms: _163  and  _164
REMARK   58  A    between atoms: _167  and  _169
REMARK   59  A    between atoms: _169  and  _170
REMARK   60  A    between atoms: _169  and  _172
REMARK   61  A    between atoms: _175  and  _177
REMARK   62  A    between atoms: _177  and  _178
REMARK   63  A    between atoms: _177  and  _180
REMARK   64  A    between atoms: _180  and  _181
REMARK   65  A    between atoms: _186  and  _188
REMARK   66  A    between atoms: _188  and  _189
REMARK   67  A    between atoms: _188  and  _191
REMARK   68  A    between atoms: _191  and  _192
REMARK   69  A    between atoms: _198  and  _200
REMARK   70  A    between atoms: _200  and  _201
REMARK   71  A    between atoms: _200  and  _203
REMARK   72  A    between atoms: _206  and  _208
REMARK   73  A    between atoms: _208  and  _209
REMARK   74  A    between atoms: _208  and  _211
REMARK   75  A    between atoms: _211  and  _212
REMARK   76  A    between atoms: _215  and  _217
REMARK   77  A    between atoms: _217  and  _218
REMARK   78  A    between atoms: _221  and  _223
REMARK   79  A    between atoms: _223  and  _224
REMARK   80  A    between atoms: _223  and  _226
REMARK   81  A    between atoms: _229  and  _231
REMARK   82  A    between atoms: _231  and  _232
REMARK   83  A    between atoms: _231  and  _234
REMARK   84  A    between atoms: _234  and  _235
REMARK   85  A    between atoms: _238  and  _240
REMARK   86  A    between atoms: _240  and  _241
REMARK   87  A    between atoms: _240  and  _243
REMARK   88  A    between atoms: _243  and  _244
REMARK   89  A    between atoms: _246  and  _248
REMARK   90  A    between atoms: _248  and  _249
REMARK   91  A    between atoms: _248  and  _251
REMARK   92  A    between atoms: _251  and  _252
REMARK   93  A    between atoms: _255  and  _257
REMARK   94  A    between atoms: _257  and  _258
REMARK   95  A    between atoms: _257  and  _260
REMARK   96  A    between atoms: _260  and  _261
REMARK   97  A    between atoms: _264  and  _266
REMARK   98  A    between atoms: _266  and  _267
REMARK   99  A    between atoms: _266  and  _269
REMARK  100  A    between atoms: _269  and  _270
REMARK  101  A    between atoms: _274  and  _275
REMARK  102  A    between atoms: _281  and  _282
REMARK  103  A    between atoms: _287  and  _289
REMARK  104  A    between atoms: _289  and  _290
REMARK  105  A    between atoms: _289  and  _292
REMARK  106  A    between atoms: _292  and  _293
REMARK  107  A    between atoms: _296  and  _298
REMARK  108  A    between atoms: _298  and  _299
REMARK  109  A    between atoms: _298  and  _301
REMARK  110  A    between atoms: _301  and  _302
REMARK  111  A    between atoms: _305  and  _307
REMARK  112  A    between atoms: _307  and  _308
REMARK  113  A    between atoms: _307  and  _310
REMARK  114  A    between atoms: _312  and  _314
REMARK  115  A    between atoms: _314  and  _315
REMARK  116  A    between atoms: _314  and  _317
REMARK  117  A    between atoms: _320  and  _322
REMARK  118  A    between atoms: _322  and  _323
REMARK  119  A    between atoms: _322  and  _325
REMARK  120  A    between atoms: _325  and  _326
REMARK  121  A    between atoms: _336  and  _338
REMARK  122  A    between atoms: _338  and  _339
REMARK  123  A    between atoms: _338  and  _341
REMARK  124  A    between atoms: _341  and  _342
REMARK  125  A    between atoms: _347  and  _349
REMARK  126  A    between atoms: _349  and  _350
REMARK  127  A    between atoms: _349  and  _352
REMARK  128  A    between atoms: _352  and  _353
REMARK  129  A    between atoms: _353  and  _354
REMARK  130  A    between atoms: _354  and  _355
REMARK                            x       y       z     vdW  Elec       q    Type
REMARK                         _______ _______ _______ _____ _____    ______ ____
ROOT
ATOM      1  O   HOH     1      14.661   6.959  10.729  0.00  0.00    +0.000 OA
ENDROOT
TORSDOF 0
REMARK  Name = ../refined-set-2016/4q99/4q99_pocket.pdb
REMARK  130 active torsions:
REMARK  status: ('A' for Active; 'I' for Inactive)
REMARK    1  A    between atoms: _1  and  _3
REMARK    2  A    between atoms: _3  and  _4
REMARK    3  A    between atoms: _3  and  _6
REMARK    4  A    between atoms: _6  and  _7
REMARK    5  A    between atoms: _17  and  _19
REMARK    6  A    between atoms: _19  and  _20
REMARK    7  A    between atoms: _19  and  _22
REMARK    8  A    between atoms: _22  and  _23
REMARK    9  A    between atoms: _28  and  _29
REMARK   10  A    between atoms: _31  and  _33
REMARK   11  A    between atoms: _33  and  _34
REMARK   12  A    between atoms: _33  and  _36
REMARK   13  A    between atoms: _36  and  _37
REMARK   14  A    between atoms: _39  and  _41
REMARK   15  A    between atoms: _41  and  _42
REMARK   16  A    between atoms: _41  and  _44
REMARK   17  A    between atoms: _44  and  _45
REMARK   18  A    between atoms: _50  and  _52
REMARK   19  A    between atoms: _52  and  _53
REMARK   20  A    between atoms: _52  and  _55
REMARK   21  A    between atoms: _55  and  _56
REMARK   22  A    between atoms: _61  and  _63
REMARK   23  A    between atoms: _63  and  _64
REMARK   24  A    between atoms: _63  and  _66
REMARK   25  A    between atoms: _66  and  _67
REMARK   26  A    between atoms: _70  and  _72
REMARK   27  A    between atoms: _72  and  _73
REMARK   28  A    between atoms: _72  and  _75
REMARK   29  A    between atoms: _75  and  _76
REMARK   30  A    between atoms: _76  and  _77
REMARK   31  A    between atoms: _82  and  _84
REMARK   32  A    between atoms: _95  and  _98
REMARK   33  A    between atoms: _98  and  _99
REMARK   34  A    between atoms: _107  and  _108
REMARK   35  A    between atoms: _116  and  _118
REMARK   36  A    between atoms: _118  and  _119
REMARK   37  A    between atoms: _118  and  _121
REMARK   38  A    between atoms: _121  and  _122
REMARK   39  A    between atoms: _122  and  _123
REMARK   40  A    between atoms: _126  and  _128
REMARK   41  A    between atoms: _128  and  _129
REMARK   42  A    between atoms: _128  and  _131
REMARK   43  A    between atoms: _131  and  _132
REMARK   44  A    between atoms: _137  and  _139
REMARK   45  A    between atoms: _139  and  _140
REMARK   46  A    between atoms: _139  and  _142
REMARK   47  A    between atoms: _142  and  _143
REMARK   48  A    between atoms: _143  and  _144
REMARK   49  A    between atoms: _147  and  _149
REMARK   50  A    between atoms: _149  and  _150
REMARK   51  A    between atoms: _149  and  _152
REMARK   52  A    between atoms: _152  and  _153
REMARK   53  A    between atoms: _154  and  ZN_364
REMARK   54  A    between atoms: _158  and  _160
REMARK   55  A    between atoms: _160  and  _161
REMARK   56  A    between atoms: _160  and  _163
REMARK   57  A    between atoms: _163  and  _164
REMARK   58  A    between atoms: _167  and  _169
REMARK   59  A    between atoms: _169  and  _170
REMARK   60  A    between atoms: _169  and  _172
REMARK   61  A    between atoms: _175  and  _177
REMARK   62  A    between atoms: _177  and  _178
REMARK   63  A    between atoms: _177  and  _180
REMARK   64  A    between atoms: _180  and  _181
REMARK   65  A    between atoms: _186  and  _188
REMARK   66  A    between atoms: _188  and  _189
REMARK   67  A    between atoms: _188  and  _191
REMARK   68  A    between atoms: _191  and  _192
REMARK   69  A    between atoms: _198  and  _200
REMARK   70  A    between atoms: _200  and  _201
REMARK   71  A    between atoms: _200  and  _203
REMARK   72  A    between atoms: _206  and  _208
REMARK   73  A    between atoms: _208  and  _209
REMARK   74  A    between atoms: _208  and  _211
REMARK   75  A    between atoms: _211  and  _212
REMARK   76  A    between atoms: _215  and  _217
REMARK   77  A    between atoms: _217  and  _218
REMARK   78  A    between atoms: _221  and  _223
REMARK   79  A    between atoms: _223  and  _224
REMARK   80  A    between atoms: _223  and  _226
REMARK   81  A    between atoms: _229  and  _231
REMARK   82  A    between atoms: _231  and  _232
REMARK   83  A    between atoms: _231  and  _234
REMARK   84  A    between atoms: _234  and  _235
REMARK   85  A    between atoms: _238  and  _240
REMARK   86  A    between atoms: _240  and  _241
REMARK   87  A    between atoms: _240  and  _243
REMARK   88  A    between atoms: _243  and  _244
REMARK   89  A    between atoms: _246  and  _248
REMARK   90  A    between atoms: _248  and  _249
REMARK   91  A    between atoms: _248  and  _251
REMARK   92  A    between atoms: _251  and  _252
REMARK   93  A    between atoms: _255  and  _257
REMARK   94  A    between atoms: _257  and  _258
REMARK   95  A    between atoms: _257  and  _260
REMARK   96  A    between atoms: _260  and  _261
REMARK   97  A    between atoms: _264  and  _266
REMARK   98  A    between atoms: _266  and  _267
REMARK   99  A    between atoms: _266  and  _269
REMARK  100  A    between atoms: _269  and  _270
REMARK  101  A    between atoms: _274  and  _275
REMARK  102  A    between atoms: _281  and  _282
REMARK  103  A    between atoms: _287  and  _289
REMARK  104  A    between atoms: _289  and  _290
REMARK  105  A    between atoms: _289  and  _292
REMARK  106  A    between atoms: _292  and  _293
REMARK  107  A    between atoms: _296  and  _298
REMARK  108  A    between atoms: _298  and  _299
REMARK  109  A    between atoms: _298  and  _301
REMARK  110  A    between atoms: _301  and  _302
REMARK  111  A    between atoms: _305  and  _307
REMARK  112  A    between atoms: _307  and  _308
REMARK  113  A    between atoms: _307  and  _310
REMARK  114  A    between atoms: _312  and  _314
REMARK  115  A    between atoms: _314  and  _315
REMARK  116  A    between atoms: _314  and  _317
REMARK  117  A    between atoms: _320  and  _322
REMARK  118  A    between atoms: _322  and  _323
REMARK  119  A    between atoms: _322  and  _325
REMARK  120  A    between atoms: _325  and  _326
REMARK  121  A    between atoms: _336  and  _338
REMARK  122  A    between atoms: _338  and  _339
REMARK  123  A    between atoms: _338  and  _341
REMARK  124  A    between atoms: _341  and  _342
REMARK  125  A    between atoms: _347  and  _349
REMARK  126  A    between atoms: _349  and  _350
REMARK  127  A    between atoms: _349  and  _352
REMARK  128  A    between atoms: _352  and  _353
REMARK  129  A    between atoms: _353  and  _354
REMARK  130  A    between atoms: _354  and  _355
REMARK                            x       y       z     vdW  Elec       q    Type
REMARK                         _______ _______ _______ _____ _____    ______ ____
ROOT
ATOM      1  O   HOH     1      14.014   5.911   6.522  0.00  0.00    +0.000 OA
ENDROOT
TORSDOF 0
REMARK  Name = ../refined-set-2016/4q99/4q99_pocket.pdb
REMARK  130 active torsions:
REMARK  status: ('A' for Active; 'I' for Inactive)
REMARK    1  A    between atoms: _1  and  _3
REMARK    2  A    between atoms: _3  and  _4
REMARK    3  A    between atoms: _3  and  _6
REMARK    4  A    between atoms: _6  and  _7
REMARK    5  A    between atoms: _17  and  _19
REMARK    6  A    between atoms: _19  and  _20
REMARK    7  A    between atoms: _19  and  _22
REMARK    8  A    between atoms: _22  and  _23
REMARK    9  A    between atoms: _28  and  _29
REMARK   10  A    between atoms: _31  and  _33
REMARK   11  A    between atoms: _33  and  _34
REMARK   12  A    between atoms: _33  and  _36
REMARK   13  A    between atoms: _36  and  _37
REMARK   14  A    between atoms: _39  and  _41
REMARK   15  A    between atoms: _41  and  _42
REMARK   16  A    between atoms: _41  and  _44
REMARK   17  A    between atoms: _44  and  _45
REMARK   18  A    between atoms: _50  and  _52
REMARK   19  A    between atoms: _52  and  _53
REMARK   20  A    between atoms: _52  and  _55
REMARK   21  A    between atoms: _55  and  _56
REMARK   22  A    between atoms: _61  and  _63
REMARK   23  A    between atoms: _63  and  _64
REMARK   24  A    between atoms: _63  and  _66
REMARK   25  A    between atoms: _66  and  _67
REMARK   26  A    between atoms: _70  and  _72
REMARK   27  A    between atoms: _72  and  _73
REMARK   28  A    between atoms: _72  and  _75
REMARK   29  A    between atoms: _75  and  _76
REMARK   30  A    between atoms: _76  and  _77
REMARK   31  A    between atoms: _82  and  _84
REMARK   32  A    between atoms: _95  and  _98
REMARK   33  A    between atoms: _98  and  _99
REMARK   34  A    between atoms: _107  and  _108
REMARK   35  A    between atoms: _116  and  _118
REMARK   36  A    between atoms: _118  and  _119
REMARK   37  A    between atoms: _118  and  _121
REMARK   38  A    between atoms: _121  and  _122
REMARK   39  A    between atoms: _122  and  _123
REMARK   40  A    between atoms: _126  and  _128
REMARK   41  A    between atoms: _128  and  _129
REMARK   42  A    between atoms: _128  and  _131
REMARK   43  A    between atoms: _131  and  _132
REMARK   44  A    between atoms: _137  and  _139
REMARK   45  A    between atoms: _139  and  _140
REMARK   46  A    between atoms: _139  and  _142
REMARK   47  A    between atoms: _142  and  _143
REMARK   48  A    between atoms: _143  and  _144
REMARK   49  A    between atoms: _147  and  _149
REMARK   50  A    between atoms: _149  and  _150
REMARK   51  A    between atoms: _149  and  _152
REMARK   52  A    between atoms: _152  and  _153
REMARK   53  A    between atoms: _154  and  ZN_364
REMARK   54  A    between atoms: _158  and  _160
REMARK   55  A    between atoms: _160  and  _161
REMARK   56  A    between atoms: _160  and  _163
REMARK   57  A    between atoms: _163  and  _164
REMARK   58  A    between atoms: _167  and  _169
REMARK   59  A    between atoms: _169  and  _170
REMARK   60  A    between atoms: _169  and  _172
REMARK   61  A    between atoms: _175  and  _177
REMARK   62  A    between atoms: _177  and  _178
REMARK   63  A    between atoms: _177  and  _180
REMARK   64  A    between atoms: _180  and  _181
REMARK   65  A    between atoms: _186  and  _188
REMARK   66  A    between atoms: _188  and  _189
REMARK   67  A    between atoms: _188  and  _191
REMARK   68  A    between atoms: _191  and  _192
REMARK   69  A    between atoms: _198  and  _200
REMARK   70  A    between atoms: _200  and  _201
REMARK   71  A    between atoms: _200  and  _203
REMARK   72  A    between atoms: _206  and  _208
REMARK   73  A    between atoms: _208  and  _209
REMARK   74  A    between atoms: _208  and  _211
REMARK   75  A    between atoms: _211  and  _212
REMARK   76  A    between atoms: _215  and  _217
REMARK   77  A    between atoms: _217  and  _218
REMARK   78  A    between atoms: _221  and  _223
REMARK   79  A    between atoms: _223  and  _224
REMARK   80  A    between atoms: _223  and  _226
REMARK   81  A    between atoms: _229  and  _231
REMARK   82  A    between atoms: _231  and  _232
REMARK   83  A    between atoms: _231  and  _234
REMARK   84  A    between atoms: _234  and  _235
REMARK   85  A    between atoms: _238  and  _240
REMARK   86  A    between atoms: _240  and  _241
REMARK   87  A    between atoms: _240  and  _243
REMARK   88  A    between atoms: _243  and  _244
REMARK   89  A    between atoms: _246  and  _248
REMARK   90  A    between atoms: _248  and  _249
REMARK   91  A    between atoms: _248  and  _251
REMARK   92  A    between atoms: _251  and  _252
REMARK   93  A    between atoms: _255  and  _257
REMARK   94  A    between atoms: _257  and  _258
REMARK   95  A    between atoms: _257  and  _260
REMARK   96  A    between atoms: _260  and  _261
REMARK   97  A    between atoms: _264  and  _266
REMARK   98  A    between atoms: _266  and  _267
REMARK   99  A    between atoms: _266  and  _269
REMARK  100  A    between atoms: _269  and  _270
REMARK  101  A    between atoms: _274  and  _275
REMARK  102  A    between atoms: _281  and  _282
REMARK  103  A    between atoms: _287  and  _289
REMARK  104  A    between atoms: _289  and  _290
REMARK  105  A    between atoms: _289  and  _292
REMARK  106  A    between atoms: _292  and  _293
REMARK  107  A    between atoms: _296  and  _298
REMARK  108  A    between atoms: _298  and  _299
REMARK  109  A    between atoms: _298  and  _301
REMARK  110  A    between atoms: _301  and  _302
REMARK  111  A    between atoms: _305  and  _307
REMARK  112  A    between atoms: _307  and  _308
REMARK  113  A    between atoms: _307  and  _310
REMARK  114  A    between atoms: _312  and  _314
REMARK  115  A    between atoms: _314  and  _315
REMARK  116  A    between atoms: _314  and  _317
REMARK  117  A    between atoms: _320  and  _322
REMARK  118  A    between atoms: _322  and  _323
REMARK  119  A    between atoms: _322  and  _325
REMARK  120  A    between atoms: _325  and  _326
REMARK  121  A    between atoms: _336  and  _338
REMARK  122  A    between atoms: _338  and  _339
REMARK  123  A    between atoms: _338  and  _341
REMARK  124  A    between atoms: _341  and  _342
REMARK  125  A    between atoms: _347  and  _349
REMARK  126  A    between atoms: _349  and  _350
REMARK  127  A    between atoms: _349  and  _352
REMARK  128  A    between atoms: _352  and  _353
REMARK  129  A    between atoms: _353  and  _354
REMARK  130  A    between atoms: _354  and  _355
REMARK                            x       y       z     vdW  Elec       q    Type
REMARK                         _______ _______ _______ _____ _____    ______ ____
ROOT
ATOM      1  O   HOH     1      19.878   3.208  13.580  0.00  0.00    +0.000 OA
ENDROOT
TORSDOF 0
REMARK  Name = ../refined-set-2016/4q99/4q99_pocket.pdb
REMARK  130 active torsions:
REMARK  status: ('A' for Active; 'I' for Inactive)
REMARK    1  A    between atoms: _1  and  _3
REMARK    2  A    between atoms: _3  and  _4
REMARK    3  A    between atoms: _3  and  _6
REMARK    4  A    between atoms: _6  and  _7
REMARK    5  A    between atoms: _17  and  _19
REMARK    6  A    between atoms: _19  and  _20
REMARK    7  A    between atoms: _19  and  _22
REMARK    8  A    between atoms: _22  and  _23
REMARK    9  A    between atoms: _28  and  _29
REMARK   10  A    between atoms: _31  and  _33
REMARK   11  A    between atoms: _33  and  _34
REMARK   12  A    between atoms: _33  and  _36
REMARK   13  A    between atoms: _36  and  _37
REMARK   14  A    between atoms: _39  and  _41
REMARK   15  A    between atoms: _41  and  _42
REMARK   16  A    between atoms: _41  and  _44
REMARK   17  A    between atoms: _44  and  _45
REMARK   18  A    between atoms: _50  and  _52
REMARK   19  A    between atoms: _52  and  _53
REMARK   20  A    between atoms: _52  and  _55
REMARK   21  A    between atoms: _55  and  _56
REMARK   22  A    between atoms: _61  and  _63
REMARK   23  A    between atoms: _63  and  _64
REMARK   24  A    between atoms: _63  and  _66
REMARK   25  A    between atoms: _66  and  _67
REMARK   26  A    between atoms: _70  and  _72
REMARK   27  A    between atoms: _72  and  _73
REMARK   28  A    between atoms: _72  and  _75
REMARK   29  A    between atoms: _75  and  _76
REMARK   30  A    between atoms: _76  and  _77
REMARK   31  A    between atoms: _82  and  _84
REMARK   32  A    between atoms: _95  and  _98
REMARK   33  A    between atoms: _98  and  _99
REMARK   34  A    between atoms: _107  and  _108
REMARK   35  A    between atoms: _116  and  _118
REMARK   36  A    between atoms: _118  and  _119
REMARK   37  A    between atoms: _118  and  _121
REMARK   38  A    between atoms: _121  and  _122
REMARK   39  A    between atoms: _122  and  _123
REMARK   40  A    between atoms: _126  and  _128
REMARK   41  A    between atoms: _128  and  _129
REMARK   42  A    between atoms: _128  and  _131
REMARK   43  A    between atoms: _131  and  _132
REMARK   44  A    between atoms: _137  and  _139
REMARK   45  A    between atoms: _139  and  _140
REMARK   46  A    between atoms: _139  and  _142
REMARK   47  A    between atoms: _142  and  _143
REMARK   48  A    between atoms: _143  and  _144
REMARK   49  A    between atoms: _147  and  _149
REMARK   50  A    between atoms: _149  and  _150
REMARK   51  A    between atoms: _149  and  _152
REMARK   52  A    between atoms: _152  and  _153
REMARK   53  A    between atoms: _154  and  ZN_364
REMARK   54  A    between atoms: _158  and  _160
REMARK   55  A    between atoms: _160  and  _161
REMARK   56  A    between atoms: _160  and  _163
REMARK   57  A    between atoms: _163  and  _164
REMARK   58  A    between atoms: _167  and  _169
REMARK   59  A    between atoms: _169  and  _170
REMARK   60  A    between atoms: _169  and  _172
REMARK   61  A    between atoms: _175  and  _177
REMARK   62  A    between atoms: _177  and  _178
REMARK   63  A    between atoms: _177  and  _180
REMARK   64  A    between atoms: _180  and  _181
REMARK   65  A    between atoms: _186  and  _188
REMARK   66  A    between atoms: _188  and  _189
REMARK   67  A    between atoms: _188  and  _191
REMARK   68  A    between atoms: _191  and  _192
REMARK   69  A    between atoms: _198  and  _200
REMARK   70  A    between atoms: _200  and  _201
REMARK   71  A    between atoms: _200  and  _203
REMARK   72  A    between atoms: _206  and  _208
REMARK   73  A    between atoms: _208  and  _209
REMARK   74  A    between atoms: _208  and  _211
REMARK   75  A    between atoms: _211  and  _212
REMARK   76  A    between atoms: _215  and  _217
REMARK   77  A    between atoms: _217  and  _218
REMARK   78  A    between atoms: _221  and  _223
REMARK   79  A    between atoms: _223  and  _224
REMARK   80  A    between atoms: _223  and  _226
REMARK   81  A    between atoms: _229  and  _231
REMARK   82  A    between atoms: _231  and  _232
REMARK   83  A    between atoms: _231  and  _234
REMARK   84  A    between atoms: _234  and  _235
REMARK   85  A    between atoms: _238  and  _240
REMARK   86  A    between atoms: _240  and  _241
REMARK   87  A    between atoms: _240  and  _243
REMARK   88  A    between atoms: _243  and  _244
REMARK   89  A    between atoms: _246  and  _248
REMARK   90  A    between atoms: _248  and  _249
REMARK   91  A    between atoms: _248  and  _251
REMARK   92  A    between atoms: _251  and  _252
REMARK   93  A    between atoms: _255  and  _257
REMARK   94  A    between atoms: _257  and  _258
REMARK   95  A    between atoms: _257  and  _260
REMARK   96  A    between atoms: _260  and  _261
REMARK   97  A    between atoms: _264  and  _266
REMARK   98  A    between atoms: _266  and  _267
REMARK   99  A    between atoms: _266  and  _269
REMARK  100  A    between atoms: _269  and  _270
REMARK  101  A    between atoms: _274  and  _275
REMARK  102  A    between atoms: _281  and  _282
REMARK  103  A    between atoms: _287  and  _289
REMARK  104  A    between atoms: _289  and  _290
REMARK  105  A    between atoms: _289  and  _292
REMARK  106  A    between atoms: _292  and  _293
REMARK  107  A    between atoms: _296  and  _298
REMARK  108  A    between atoms: _298  and  _299
REMARK  109  A    between atoms: _298  and  _301
REMARK  110  A    between atoms: _301  and  _302
REMARK  111  A    between atoms: _305  and  _307
REMARK  112  A    between atoms: _307  and  _308
REMARK  113  A    between atoms: _307  and  _310
REMARK  114  A    between atoms: _312  and  _314
REMARK  115  A    between atoms: _314  and  _315
REMARK  116  A    between atoms: _314  and  _317
REMARK  117  A    between atoms: _320  and  _322
REMARK  118  A    between atoms: _322  and  _323
REMARK  119  A    between atoms: _322  and  _325
REMARK  120  A    between atoms: _325  and  _326
REMARK  121  A    between atoms: _336  and  _338
REMARK  122  A    between atoms: _338  and  _339
REMARK  123  A    between atoms: _338  and  _341
REMARK  124  A    between atoms: _341  and  _342
REMARK  125  A    between atoms: _347  and  _349
REMARK  126  A    between atoms: _349  and  _350
REMARK  127  A    between atoms: _349  and  _352
REMARK  128  A    between atoms: _352  and  _353
REMARK  129  A    between atoms: _353  and  _354
REMARK  130  A    between atoms: _354  and  _355
REMARK                            x       y       z     vdW  Elec       q    Type
REMARK                         _______ _______ _______ _____ _____    ______ ____
ROOT
ATOM      1  O   HOH     1      12.876   7.425   8.505  0.00  0.00    +0.000 OA
ENDROOT
TORSDOF 0
