REMARK  Name = ../refined-set-2016/1met/1met_pocket.pdb
REMARK  208 active torsions:
REMARK  status: ('A' for Active; 'I' for Inactive)
REMARK    1  A    between atoms: _1  and  _3
REMARK    2  A    between atoms: _3  and  _4
REMARK    3  A    between atoms: _3  and  _6
REMARK    4  A    between atoms: _6  and  _7
REMARK    5  A    between atoms: _7  and  _8
REMARK    6  A    between atoms: _8  and  _9
REMARK    7  A    between atoms: _18  and  _20
REMARK    8  A    between atoms: _20  and  _21
REMARK    9  A    between atoms: _20  and  _23
REMARK   10  A    between atoms: _23  and  _24
REMARK   11  A    between atoms: _27  and  _29
REMARK   12  A    between atoms: _29  and  _30
REMARK   13  A    between atoms: _29  and  _32
REMARK   14  A    between atoms: _32  and  _33
REMARK   15  A    between atoms: _36  and  _38
REMARK   16  A    between atoms: _38  and  _39
REMARK   17  A    between atoms: _38  and  _41
REMARK   18  A    between atoms: _41  and  _42
REMARK   19  A    between atoms: _45  and  _47
REMARK   20  A    between atoms: _47  and  _48
REMARK   21  A    between atoms: _47  and  _50
REMARK   22  A    between atoms: _50  and  _51
REMARK   23  A    between atoms: _54  and  _56
REMARK   24  A    between atoms: _56  and  _57
REMARK   25  A    between atoms: _59  and  _61
REMARK   26  A    between atoms: _61  and  _62
REMARK   27  A    between atoms: _65  and  _67
REMARK   28  A    between atoms: _67  and  _68
REMARK   29  A    between atoms: _67  and  _70
REMARK   30  A    between atoms: _70  and  _71
REMARK   31  A    between atoms: _74  and  _76
REMARK   32  A    between atoms: _76  and  _77
REMARK   33  A    between atoms: _76  and  _79
REMARK   34  A    between atoms: _79  and  _80
REMARK   35  A    between atoms: _83  and  _85
REMARK   36  A    between atoms: _85  and  _86
REMARK   37  A    between atoms: _85  and  _88
REMARK   38  A    between atoms: _88  and  _89
REMARK   39  A    between atoms: _92  and  _94
REMARK   40  A    between atoms: _94  and  _95
REMARK   41  A    between atoms: _94  and  _97
REMARK   42  A    between atoms: _100  and  _102
REMARK   43  A    between atoms: _102  and  _103
REMARK   44  A    between atoms: _102  and  _105
REMARK   45  A    between atoms: _105  and  _106
REMARK   46  A    between atoms: _109  and  _111
REMARK   47  A    between atoms: _111  and  _112
REMARK   48  A    between atoms: _114  and  _116
REMARK   49  A    between atoms: _116  and  _117
REMARK   50  A    between atoms: _119  and  _121
REMARK   51  A    between atoms: _121  and  _122
REMARK   52  A    between atoms: _121  and  _124
REMARK   53  A    between atoms: _124  and  _125
REMARK   54  A    between atoms: _128  and  _130
REMARK   55  A    between atoms: _130  and  _131
REMARK   56  A    between atoms: _133  and  _135
REMARK   57  A    between atoms: _135  and  _136
REMARK   58  A    between atoms: _138  and  _140
REMARK   59  A    between atoms: _140  and  _141
REMARK   60  A    between atoms: _140  and  _143
REMARK   61  A    between atoms: _143  and  _144
REMARK   62  A    between atoms: _147  and  _149
REMARK   63  A    between atoms: _149  and  _150
REMARK   64  A    between atoms: _149  and  _152
REMARK   65  A    between atoms: _152  and  _153
REMARK   66  A    between atoms: _157  and  _158
REMARK   67  A    between atoms: _163  and  _165
REMARK   68  A    between atoms: _165  and  _166
REMARK   69  A    between atoms: _165  and  _168
REMARK   70  A    between atoms: _168  and  _169
REMARK   71  A    between atoms: _173  and  _174
REMARK   72  A    between atoms: _179  and  _181
REMARK   73  A    between atoms: _181  and  _182
REMARK   74  A    between atoms: _181  and  _184
REMARK   75  A    between atoms: _184  and  _185
REMARK   76  A    between atoms: _191  and  _193
REMARK   77  A    between atoms: _193  and  _194
REMARK   78  A    between atoms: _193  and  _196
REMARK   79  A    between atoms: _196  and  _197
REMARK   80  A    between atoms: _202  and  _204
REMARK   81  A    between atoms: _204  and  _205
REMARK   82  A    between atoms: _204  and  _207
REMARK   83  A    between atoms: _207  and  _208
REMARK   84  A    between atoms: _211  and  _213
REMARK   85  A    between atoms: _213  and  _214
REMARK   86  A    between atoms: _213  and  _216
REMARK   87  A    between atoms: _216  and  _217
REMARK   88  A    between atoms: _220  and  _222
REMARK   89  A    between atoms: _222  and  _223
REMARK   90  A    between atoms: _225  and  _227
REMARK   91  A    between atoms: _227  and  _228
REMARK   92  A    between atoms: _227  and  _230
REMARK   93  A    between atoms: _230  and  _231
REMARK   94  A    between atoms: _231  and  _232
REMARK   95  A    between atoms: _232  and  _233
REMARK   96  A    between atoms: _242  and  _244
REMARK   97  A    between atoms: _244  and  _245
REMARK   98  A    between atoms: _244  and  _247
REMARK   99  A    between atoms: _247  and  _248
REMARK  100  A    between atoms: _253  and  _255
REMARK  101  A    between atoms: _255  and  _256
REMARK  102  A    between atoms: _255  and  _258
REMARK  103  A    between atoms: _258  and  _259
REMARK  104  A    between atoms: _259  and  _260
REMARK  105  A    between atoms: _260  and  _261
REMARK  106  A    between atoms: _270  and  _272
REMARK  107  A    between atoms: _272  and  _273
REMARK  108  A    between atoms: _272  and  _275
REMARK  109  A    between atoms: _275  and  _276
REMARK  110  A    between atoms: _279  and  _281
REMARK  111  A    between atoms: _281  and  _282
REMARK  112  A    between atoms: _281  and  _284
REMARK  113  A    between atoms: _284  and  _285
REMARK  114  A    between atoms: _288  and  _290
REMARK  115  A    between atoms: _290  and  _291
REMARK  116  A    between atoms: _290  and  _293
REMARK  117  A    between atoms: _293  and  _294
REMARK  118  A    between atoms: _297  and  _299
REMARK  119  A    between atoms: _299  and  _300
REMARK  120  A    between atoms: _299  and  _302
REMARK  121  A    between atoms: _302  and  _303
REMARK  122  A    between atoms: _306  and  _308
REMARK  123  A    between atoms: _308  and  _309
REMARK  124  A    between atoms: _311  and  _313
REMARK  125  A    between atoms: _313  and  _314
REMARK  126  A    between atoms: _317  and  _319
REMARK  127  A    between atoms: _319  and  _320
REMARK  128  A    between atoms: _319  and  _322
REMARK  129  A    between atoms: _322  and  _323
REMARK  130  A    between atoms: _326  and  _328
REMARK  131  A    between atoms: _328  and  _329
REMARK  132  A    between atoms: _328  and  _331
REMARK  133  A    between atoms: _331  and  _332
REMARK  134  A    between atoms: _335  and  _337
REMARK  135  A    between atoms: _337  and  _338
REMARK  136  A    between atoms: _337  and  _340
REMARK  137  A    between atoms: _340  and  _341
REMARK  138  A    between atoms: _344  and  _346
REMARK  139  A    between atoms: _346  and  _347
REMARK  140  A    between atoms: _346  and  _349
REMARK  141  A    between atoms: _352  and  _354
REMARK  142  A    between atoms: _354  and  _355
REMARK  143  A    between atoms: _354  and  _357
REMARK  144  A    between atoms: _357  and  _358
REMARK  145  A    between atoms: _358  and  _359
REMARK  146  A    between atoms: _359  and  _360
REMARK  147  A    between atoms: _360  and  _361
REMARK  148  A    between atoms: _365  and  _367
REMARK  149  A    between atoms: _367  and  _368
REMARK  150  A    between atoms: _367  and  _370
REMARK  151  A    between atoms: _370  and  _371
REMARK  152  A    between atoms: _374  and  _376
REMARK  153  A    between atoms: _376  and  _377
REMARK  154  A    between atoms: _379  and  _381
REMARK  155  A    between atoms: _381  and  _382
REMARK  156  A    between atoms: _384  and  _386
REMARK  157  A    between atoms: _386  and  _387
REMARK  158  A    between atoms: _386  and  _389
REMARK  159  A    between atoms: _389  and  _390
REMARK  160  A    between atoms: _393  and  _395
REMARK  161  A    between atoms: _395  and  _396
REMARK  162  A    between atoms: _398  and  _400
REMARK  163  A    between atoms: _400  and  _401
REMARK  164  A    between atoms: _403  and  _405
REMARK  165  A    between atoms: _405  and  _406
REMARK  166  A    between atoms: _405  and  _408
REMARK  167  A    between atoms: _408  and  _409
REMARK  168  A    between atoms: _412  and  _414
REMARK  169  A    between atoms: _414  and  _415
REMARK  170  A    between atoms: _414  and  _417
REMARK  171  A    between atoms: _420  and  _422
REMARK  172  A    between atoms: _422  and  _423
REMARK  173  A    between atoms: _422  and  _425
REMARK  174  A    between atoms: _425  and  _426
REMARK  175  A    between atoms: _430  and  _431
REMARK  176  A    between atoms: _436  and  _438
REMARK  177  A    between atoms: _438  and  _439
REMARK  178  A    between atoms: _438  and  _441
REMARK  179  A    between atoms: _441  and  _442
REMARK  180  A    between atoms: _446  and  _447
REMARK  181  A    between atoms: _452  and  _454
REMARK  182  A    between atoms: _454  and  _455
REMARK  183  A    between atoms: _454  and  _457
REMARK  184  A    between atoms: _457  and  _458
REMARK  185  A    between atoms: _464  and  _466
REMARK  186  A    between atoms: _466  and  _467
REMARK  187  A    between atoms: _466  and  _469
REMARK  188  A    between atoms: _469  and  _470
REMARK  189  A    between atoms: _475  and  _477
REMARK  190  A    between atoms: _477  and  _478
REMARK  191  A    between atoms: _477  and  _480
REMARK  192  A    between atoms: _480  and  _481
REMARK  193  A    between atoms: _484  and  _486
REMARK  194  A    between atoms: _486  and  _487
REMARK  195  A    between atoms: _486  and  _489
REMARK  196  A    between atoms: _489  and  _490
REMARK  197  A    between atoms: _493  and  _495
REMARK  198  A    between atoms: _495  and  _496
REMARK  199  A    between atoms: _498  and  _500
REMARK  200  A    between atoms: _500  and  _501
REMARK  201  A    between atoms: _500  and  _503
REMARK  202  A    between atoms: _503  and  _504
REMARK  203  A    between atoms: _504  and  _505
REMARK  204  A    between atoms: _505  and  _506
REMARK  205  A    between atoms: _515  and  _517
REMARK  206  A    between atoms: _517  and  _518
REMARK  207  A    between atoms: _517  and  _520
REMARK  208  A    between atoms: _520  and  _521
REMARK                            x       y       z     vdW  Elec       q    Type
REMARK                         _______ _______ _______ _____ _____    ______ ____
ROOT
ATOM      1  NE  ARG A   1      -4.174  24.687  22.244  0.00  0.00    -0.265 N 
ATOM      2  CZ  ARG A   1      -3.427  23.573  22.079  0.00  0.00    +0.342 C 
ATOM      3  NH2 ARG A   1      -3.001  22.848  23.121  0.00  0.00    -0.292 N 
ATOM      4 HH21 ARG A   1      -3.244  23.138  24.090  0.00  0.00    +0.255 HD
ATOM      5 HH22 ARG A   1      -2.427  21.995  22.961  0.00  0.00    +0.255 HD
ATOM      6  NH1 ARG A   1      -3.078  23.165  20.852  0.00  0.00    -0.292 N 
ATOM      7 HH11 ARG A   1      -2.503  22.307  20.733  0.00  0.00    +0.255 HD
ATOM      8 HH12 ARG A   1      -3.382  23.707  20.018  0.00  0.00    +0.255 HD
ATOM      9  HE  ARG A   1      -4.696  25.094  21.441  0.00  0.00    +0.259 HD
ENDROOT
BRANCH   1  10
ATOM     10  CD  ARG A   1      -4.241  25.317  23.568  0.00  0.00    +0.174 C 
BRANCH  10  11
ATOM     11  CG  ARG A   1      -5.454  26.223  23.694  0.00  0.00    +0.045 C 
BRANCH  11  12
ATOM     12  CB  ARG A   1      -5.425  27.408  22.741  0.00  0.00    +0.029 C 
BRANCH  12  13
ATOM     13  CA  ARG A   1      -6.725  28.227  22.703  0.00  0.00    +0.133 C 
BRANCH  13  14
ATOM     14  N   ARG A   1      -6.724  28.856  21.381  0.00  0.00    -0.239 NA
ATOM     15  H   ARG A   1      -6.024  28.553  20.674  0.00  0.00    +0.142 HD
ENDBRANCH  13  14
BRANCH  13  16
ATOM     16  C   ARG A   1      -6.807  29.244  23.857  0.00  0.00    +0.224 C 
ATOM     17  O   ARG A   1      -6.001  30.160  23.917  0.00  0.00    -0.287 OA
ENDBRANCH  13  16
ENDBRANCH  12  13
ENDBRANCH  11  12
ENDBRANCH  10  11
ENDBRANCH   1  10
TORSDOF 6
REMARK  Name = ../refined-set-2016/1met/1met_pocket.pdb
REMARK  208 active torsions:
REMARK  status: ('A' for Active; 'I' for Inactive)
REMARK    1  A    between atoms: _1  and  _3
REMARK    2  A    between atoms: _3  and  _4
REMARK    3  A    between atoms: _3  and  _6
REMARK    4  A    between atoms: _6  and  _7
REMARK    5  A    between atoms: _7  and  _8
REMARK    6  A    between atoms: _8  and  _9
REMARK    7  A    between atoms: _18  and  _20
REMARK    8  A    between atoms: _20  and  _21
REMARK    9  A    between atoms: _20  and  _23
REMARK   10  A    between atoms: _23  and  _24
REMARK   11  A    between atoms: _27  and  _29
REMARK   12  A    between atoms: _29  and  _30
REMARK   13  A    between atoms: _29  and  _32
REMARK   14  A    between atoms: _32  and  _33
REMARK   15  A    between atoms: _36  and  _38
REMARK   16  A    between atoms: _38  and  _39
REMARK   17  A    between atoms: _38  and  _41
REMARK   18  A    between atoms: _41  and  _42
REMARK   19  A    between atoms: _45  and  _47
REMARK   20  A    between atoms: _47  and  _48
REMARK   21  A    between atoms: _47  and  _50
REMARK   22  A    between atoms: _50  and  _51
REMARK   23  A    between atoms: _54  and  _56
REMARK   24  A    between atoms: _56  and  _57
REMARK   25  A    between atoms: _59  and  _61
REMARK   26  A    between atoms: _61  and  _62
REMARK   27  A    between atoms: _65  and  _67
REMARK   28  A    between atoms: _67  and  _68
REMARK   29  A    between atoms: _67  and  _70
REMARK   30  A    between atoms: _70  and  _71
REMARK   31  A    between atoms: _74  and  _76
REMARK   32  A    between atoms: _76  and  _77
REMARK   33  A    between atoms: _76  and  _79
REMARK   34  A    between atoms: _79  and  _80
REMARK   35  A    between atoms: _83  and  _85
REMARK   36  A    between atoms: _85  and  _86
REMARK   37  A    between atoms: _85  and  _88
REMARK   38  A    between atoms: _88  and  _89
REMARK   39  A    between atoms: _92  and  _94
REMARK   40  A    between atoms: _94  and  _95
REMARK   41  A    between atoms: _94  and  _97
REMARK   42  A    between atoms: _100  and  _102
REMARK   43  A    between atoms: _102  and  _103
REMARK   44  A    between atoms: _102  and  _105
REMARK   45  A    between atoms: _105  and  _106
REMARK   46  A    between atoms: _109  and  _111
REMARK   47  A    between atoms: _111  and  _112
REMARK   48  A    between atoms: _114  and  _116
REMARK   49  A    between atoms: _116  and  _117
REMARK   50  A    between atoms: _119  and  _121
REMARK   51  A    between atoms: _121  and  _122
REMARK   52  A    between atoms: _121  and  _124
REMARK   53  A    between atoms: _124  and  _125
REMARK   54  A    between atoms: _128  and  _130
REMARK   55  A    between atoms: _130  and  _131
REMARK   56  A    between atoms: _133  and  _135
REMARK   57  A    between atoms: _135  and  _136
REMARK   58  A    between atoms: _138  and  _140
REMARK   59  A    between atoms: _140  and  _141
REMARK   60  A    between atoms: _140  and  _143
REMARK   61  A    between atoms: _143  and  _144
REMARK   62  A    between atoms: _147  and  _149
REMARK   63  A    between atoms: _149  and  _150
REMARK   64  A    between atoms: _149  and  _152
REMARK   65  A    between atoms: _152  and  _153
REMARK   66  A    between atoms: _157  and  _158
REMARK   67  A    between atoms: _163  and  _165
REMARK   68  A    between atoms: _165  and  _166
REMARK   69  A    between atoms: _165  and  _168
REMARK   70  A    between atoms: _168  and  _169
REMARK   71  A    between atoms: _173  and  _174
REMARK   72  A    between atoms: _179  and  _181
REMARK   73  A    between atoms: _181  and  _182
REMARK   74  A    between atoms: _181  and  _184
REMARK   75  A    between atoms: _184  and  _185
REMARK   76  A    between atoms: _191  and  _193
REMARK   77  A    between atoms: _193  and  _194
REMARK   78  A    between atoms: _193  and  _196
REMARK   79  A    between atoms: _196  and  _197
REMARK   80  A    between atoms: _202  and  _204
REMARK   81  A    between atoms: _204  and  _205
REMARK   82  A    between atoms: _204  and  _207
REMARK   83  A    between atoms: _207  and  _208
REMARK   84  A    between atoms: _211  and  _213
REMARK   85  A    between atoms: _213  and  _214
REMARK   86  A    between atoms: _213  and  _216
REMARK   87  A    between atoms: _216  and  _217
REMARK   88  A    between atoms: _220  and  _222
REMARK   89  A    between atoms: _222  and  _223
REMARK   90  A    between atoms: _225  and  _227
REMARK   91  A    between atoms: _227  and  _228
REMARK   92  A    between atoms: _227  and  _230
REMARK   93  A    between atoms: _230  and  _231
REMARK   94  A    between atoms: _231  and  _232
REMARK   95  A    between atoms: _232  and  _233
REMARK   96  A    between atoms: _242  and  _244
REMARK   97  A    between atoms: _244  and  _245
REMARK   98  A    between atoms: _244  and  _247
REMARK   99  A    between atoms: _247  and  _248
REMARK  100  A    between atoms: _253  and  _255
REMARK  101  A    between atoms: _255  and  _256
REMARK  102  A    between atoms: _255  and  _258
REMARK  103  A    between atoms: _258  and  _259
REMARK  104  A    between atoms: _259  and  _260
REMARK  105  A    between atoms: _260  and  _261
REMARK  106  A    between atoms: _270  and  _272
REMARK  107  A    between atoms: _272  and  _273
REMARK  108  A    between atoms: _272  and  _275
REMARK  109  A    between atoms: _275  and  _276
REMARK  110  A    between atoms: _279  and  _281
REMARK  111  A    between atoms: _281  and  _282
REMARK  112  A    between atoms: _281  and  _284
REMARK  113  A    between atoms: _284  and  _285
REMARK  114  A    between atoms: _288  and  _290
REMARK  115  A    between atoms: _290  and  _291
REMARK  116  A    between atoms: _290  and  _293
REMARK  117  A    between atoms: _293  and  _294
REMARK  118  A    between atoms: _297  and  _299
REMARK  119  A    between atoms: _299  and  _300
REMARK  120  A    between atoms: _299  and  _302
REMARK  121  A    between atoms: _302  and  _303
REMARK  122  A    between atoms: _306  and  _308
REMARK  123  A    between atoms: _308  and  _309
REMARK  124  A    between atoms: _311  and  _313
REMARK  125  A    between atoms: _313  and  _314
REMARK  126  A    between atoms: _317  and  _319
REMARK  127  A    between atoms: _319  and  _320
REMARK  128  A    between atoms: _319  and  _322
REMARK  129  A    between atoms: _322  and  _323
REMARK  130  A    between atoms: _326  and  _328
REMARK  131  A    between atoms: _328  and  _329
REMARK  132  A    between atoms: _328  and  _331
REMARK  133  A    between atoms: _331  and  _332
REMARK  134  A    between atoms: _335  and  _337
REMARK  135  A    between atoms: _337  and  _338
REMARK  136  A    between atoms: _337  and  _340
REMARK  137  A    between atoms: _340  and  _341
REMARK  138  A    between atoms: _344  and  _346
REMARK  139  A    between atoms: _346  and  _347
REMARK  140  A    between atoms: _346  and  _349
REMARK  141  A    between atoms: _352  and  _354
REMARK  142  A    between atoms: _354  and  _355
REMARK  143  A    between atoms: _354  and  _357
REMARK  144  A    between atoms: _357  and  _358
REMARK  145  A    between atoms: _358  and  _359
REMARK  146  A    between atoms: _359  and  _360
REMARK  147  A    between atoms: _360  and  _361
REMARK  148  A    between atoms: _365  and  _367
REMARK  149  A    between atoms: _367  and  _368
REMARK  150  A    between atoms: _367  and  _370
REMARK  151  A    between atoms: _370  and  _371
REMARK  152  A    between atoms: _374  and  _376
REMARK  153  A    between atoms: _376  and  _377
REMARK  154  A    between atoms: _379  and  _381
REMARK  155  A    between atoms: _381  and  _382
REMARK  156  A    between atoms: _384  and  _386
REMARK  157  A    between atoms: _386  and  _387
REMARK  158  A    between atoms: _386  and  _389
REMARK  159  A    between atoms: _389  and  _390
REMARK  160  A    between atoms: _393  and  _395
REMARK  161  A    between atoms: _395  and  _396
REMARK  162  A    between atoms: _398  and  _400
REMARK  163  A    between atoms: _400  and  _401
REMARK  164  A    between atoms: _403  and  _405
REMARK  165  A    between atoms: _405  and  _406
REMARK  166  A    between atoms: _405  and  _408
REMARK  167  A    between atoms: _408  and  _409
REMARK  168  A    between atoms: _412  and  _414
REMARK  169  A    between atoms: _414  and  _415
REMARK  170  A    between atoms: _414  and  _417
REMARK  171  A    between atoms: _420  and  _422
REMARK  172  A    between atoms: _422  and  _423
REMARK  173  A    between atoms: _422  and  _425
REMARK  174  A    between atoms: _425  and  _426
REMARK  175  A    between atoms: _430  and  _431
REMARK  176  A    between atoms: _436  and  _438
REMARK  177  A    between atoms: _438  and  _439
REMARK  178  A    between atoms: _438  and  _441
REMARK  179  A    between atoms: _441  and  _442
REMARK  180  A    between atoms: _446  and  _447
REMARK  181  A    between atoms: _452  and  _454
REMARK  182  A    between atoms: _454  and  _455
REMARK  183  A    between atoms: _454  and  _457
REMARK  184  A    between atoms: _457  and  _458
REMARK  185  A    between atoms: _464  and  _466
REMARK  186  A    between atoms: _466  and  _467
REMARK  187  A    between atoms: _466  and  _469
REMARK  188  A    between atoms: _469  and  _470
REMARK  189  A    between atoms: _475  and  _477
REMARK  190  A    between atoms: _477  and  _478
REMARK  191  A    between atoms: _477  and  _480
REMARK  192  A    between atoms: _480  and  _481
REMARK  193  A    between atoms: _484  and  _486
REMARK  194  A    between atoms: _486  and  _487
REMARK  195  A    between atoms: _486  and  _489
REMARK  196  A    between atoms: _489  and  _490
REMARK  197  A    between atoms: _493  and  _495
REMARK  198  A    between atoms: _495  and  _496
REMARK  199  A    between atoms: _498  and  _500
REMARK  200  A    between atoms: _500  and  _501
REMARK  201  A    between atoms: _500  and  _503
REMARK  202  A    between atoms: _503  and  _504
REMARK  203  A    between atoms: _504  and  _505
REMARK  204  A    between atoms: _505  and  _506
REMARK  205  A    between atoms: _515  and  _517
REMARK  206  A    between atoms: _517  and  _518
REMARK  207  A    between atoms: _517  and  _520
REMARK  208  A    between atoms: _520  and  _521
REMARK                            x       y       z     vdW  Elec       q    Type
REMARK                         _______ _______ _______ _____ _____    ______ ____
ROOT
ATOM      1  C   GLY A   5     -14.184  19.256  31.014  0.00  0.00    +0.243 C 
ATOM      2  N   ALA A   6     -13.457  19.988  31.872  0.00  0.00    -0.297 N 
ATOM      3  H   ALA A   6     -13.417  21.023  31.780  0.00  0.00    +0.150 HD
ATOM      4  O   GLY A   5     -14.298  18.049  31.140  0.00  0.00    -0.273 OA
ENDROOT
BRANCH   2   5
ATOM      5  CA  ALA A   6     -12.727  19.313  32.932  0.00  0.00    +0.149 C 
ATOM      6  CB  ALA A   6     -11.282  19.804  32.985  0.00  0.00    +0.031 C 
BRANCH   5   7
ATOM      7  C   ALA A   6     -13.398  19.641  34.214  0.00  0.00    +0.241 C 
ATOM      8  N   ASP A   7     -13.664  18.612  34.985  0.00  0.00    -0.297 N 
ATOM      9  H   ASP A   7     -13.423  17.636  34.716  0.00  0.00    +0.150 HD
ATOM     10  O   ALA A   6     -13.704  20.776  34.526  0.00  0.00    -0.273 OA
BRANCH   8  11
ATOM     11  CA  ASP A   7     -14.327  18.940  36.256  0.00  0.00    +0.160 C 
BRANCH  11  12
ATOM     12  C   ASP A   7     -13.391  19.596  37.241  0.00  0.00    +0.241 C 
ATOM     13  O   ASP A   7     -13.778  20.461  38.000  0.00  0.00    -0.273 OA
ATOM     14  N   ASP A   8     -12.148  19.123  37.199  0.00  0.00    -0.297 N 
ATOM     15  H   ASP A   8     -11.888  18.443  36.456  0.00  0.00    +0.150 HD
BRANCH  14  16
ATOM     16  CA  ASP A   8     -11.145  19.536  38.169  0.00  0.00    +0.160 C 
BRANCH  16  17
ATOM     17  C   ASP A   8     -10.010  20.183  37.443  0.00  0.00    +0.241 C 
ATOM     18  N   THR A   9      -9.114  20.781  38.199  0.00  0.00    -0.295 N 
ATOM     19  H   THR A   9      -9.304  20.832  39.220  0.00  0.00    +0.150 HD
ATOM     20  O   ASP A   8      -9.958  20.104  36.234  0.00  0.00    -0.273 OA
BRANCH  18  21
ATOM     21  CA  THR A   9      -7.873  21.378  37.711  0.00  0.00    +0.176 C 
BRANCH  21  22
ATOM     22  C   THR A   9      -6.728  20.409  37.860  0.00  0.00    +0.243 C 
ATOM     23  O   THR A   9      -6.504  19.876  38.942  0.00  0.00    -0.273 OA
ATOM     24  N   VAL A  10      -5.997  20.211  36.771  0.00  0.00    -0.298 N 
ATOM     25  H   VAL A  10      -6.291  20.605  35.855  0.00  0.00    +0.150 HD
BRANCH  24  26
ATOM     26  CA  VAL A  10      -4.776  19.431  36.886  0.00  0.00    +0.137 C 
BRANCH  26  27
ATOM     27  CB  VAL A  10      -4.909  18.011  36.267  0.00  0.00    +0.026 C 
ATOM     28  CG2 VAL A  10      -3.580  17.325  35.942  0.00  0.00    +0.002 C 
ATOM     29  CG1 VAL A  10      -5.833  17.954  35.076  0.00  0.00    +0.002 C 
ENDBRANCH  26  27
BRANCH  26  30
ATOM     30  C   VAL A  10      -3.613  20.230  36.325  0.00  0.00    +0.227 C 
ATOM     31  O   VAL A  10      -3.686  20.857  35.276  0.00  0.00    -0.286 OA
ENDBRANCH  26  30
ENDBRANCH  24  26
ENDBRANCH  21  22
BRANCH  21  32
ATOM     32  CB  THR A   9      -7.624  22.604  38.599  0.00  0.00    +0.137 C 
ATOM     33  CG2 THR A   9      -6.303  23.361  38.390  0.00  0.00    +0.034 C 
BRANCH  32  34
ATOM     34  OG1 THR A   9      -8.716  23.483  38.383  0.00  0.00    -0.382 OA
ATOM     35  HG1 THR A   9      -9.559  23.028  38.634  0.00  0.00    +0.210 HD
ENDBRANCH  32  34
ENDBRANCH  21  32
ENDBRANCH  18  21
ENDBRANCH  16  17
BRANCH  16  36
ATOM     36  CB  ASP A   8     -10.575  18.298  38.835  0.00  0.00    +0.143 C 
BRANCH  36  37
ATOM     37  CG  ASP A   8     -11.624  17.609  39.662  0.00  0.00    +0.367 C 
ATOM     38  OD2 ASP A   8     -12.329  18.286  40.405  0.00  0.00    -0.246 OA
ATOM     39  OD1 ASP A   8     -11.746  16.394  39.554  0.00  0.00    -0.246 OA
ENDBRANCH  36  37
ENDBRANCH  16  36
ENDBRANCH  14  16
ENDBRANCH  11  12
BRANCH  11  40
ATOM     40  CB  ASP A   7     -14.889  17.708  36.960  0.00  0.00    +0.143 C 
BRANCH  40  41
ATOM     41  CG  ASP A   7     -15.813  16.885  36.094  0.00  0.00    +0.367 C 
ATOM     42  OD2 ASP A   7     -15.845  15.681  36.319  0.00  0.00    -0.246 OA
ATOM     43  OD1 ASP A   7     -16.500  17.410  35.215  0.00  0.00    -0.246 OA
ENDBRANCH  40  41
ENDBRANCH  11  40
ENDBRANCH   8  11
ENDBRANCH   5   7
ENDBRANCH   2   5
BRANCH   1  44
ATOM     44  CA  GLY A   5     -14.779  19.996  29.813  0.00  0.00    +0.176 C 
BRANCH  44  47
ATOM     45  C   THR A   4     -15.251  22.225  30.492  0.00  0.00    +0.243 C 
ATOM     46  O   THR A   4     -16.165  21.803  31.176  0.00  0.00    -0.273 OA
ATOM     47  N   GLY A   5     -14.494  21.430  29.746  0.00  0.00    -0.295 N 
ATOM     48  H   GLY A   5     -13.735  21.808  29.143  0.00  0.00    +0.150 HD
BRANCH  45  49
ATOM     49  CA  THR A   4     -14.915  23.699  30.441  0.00  0.00    +0.176 C 
BRANCH  49  52
ATOM     50  C   ASP A   3     -12.529  23.658  30.679  0.00  0.00    +0.241 C 
ATOM     51  O   ASP A   3     -12.635  23.000  31.694  0.00  0.00    -0.273 OA
ATOM     52  N   THR A   4     -13.583  24.018  29.956  0.00  0.00    -0.295 N 
ATOM     53  H   THR A   4     -13.457  24.521  29.055  0.00  0.00    +0.150 HD
BRANCH  50  54
ATOM     54  CA  ASP A   3     -11.180  24.030  30.102  0.00  0.00    +0.160 C 
BRANCH  54  56
ATOM     55  C   LEU A   2     -10.207  26.202  29.897  0.00  0.00    +0.241 C 
ATOM     56  N   ASP A   3     -10.582  25.211  30.711  0.00  0.00    -0.297 N 
ATOM     57  H   ASP A   3     -10.452  25.280  31.741  0.00  0.00    +0.150 HD
ATOM     58  O   LEU A   2     -10.473  26.255  28.706  0.00  0.00    -0.273 OA
BRANCH  55  59
ATOM     59  CA  LEU A   2      -9.378  27.289  30.502  0.00  0.00    +0.149 C 
BRANCH  59  62
ATOM     60  C   LEU A   1      -7.166  26.426  30.364  0.00  0.00    +0.238 C 
ATOM     61  O   LEU A   1      -7.414  25.751  31.357  0.00  0.00    -0.274 OA
ATOM     62  N   LEU A   2      -8.065  27.255  29.872  0.00  0.00    -0.297 N 
ATOM     63  H   LEU A   2      -7.844  27.866  29.060  0.00  0.00    +0.150 HD
BRANCH  60  64
ATOM     64  CA  LEU A   1      -5.818  26.370  29.601  0.00  0.00    +0.145 C 
BRANCH  64  65
ATOM     65  N   LEU A   1      -4.684  26.407  30.520  0.00  0.00    -0.238 NA
ATOM     66  H   LEU A   1      -4.309  25.512  30.894  0.00  0.00    +0.142 HD
ENDBRANCH  64  65
BRANCH  64  67
ATOM     67  CB  LEU A   1      -5.657  25.022  28.899  0.00  0.00    +0.026 C 
BRANCH  67  68
ATOM     68  CG  LEU A   1      -6.268  24.696  27.541  0.00  0.00    +0.002 C 
ATOM     69  CD2 LEU A   1      -7.704  25.106  27.474  0.00  0.00    +0.000 C 
ATOM     70  CD1 LEU A   1      -6.220  23.172  27.353  0.00  0.00    +0.000 C 
ENDBRANCH  67  68
ENDBRANCH  64  67
ENDBRANCH  60  64
ENDBRANCH  59  62
BRANCH  59  71
ATOM     71  CB  LEU A   2     -10.059  28.612  30.188  0.00  0.00    +0.029 C 
BRANCH  71  72
ATOM     72  CG  LEU A   2      -9.401  29.832  30.795  0.00  0.00    +0.002 C 
ATOM     73  CD2 LEU A   2      -9.432  29.778  32.323  0.00  0.00    +0.000 C 
ATOM     74  CD1 LEU A   2     -10.098  31.050  30.228  0.00  0.00    +0.000 C 
ENDBRANCH  71  72
ENDBRANCH  59  71
ENDBRANCH  55  59
ENDBRANCH  54  56
BRANCH  54  75
ATOM     75  CB  ASP A   3     -10.205  22.879  30.300  0.00  0.00    +0.143 C 
BRANCH  75  76
ATOM     76  CG  ASP A   3     -10.565  21.600  29.576  0.00  0.00    +0.367 C 
ATOM     77  OD2 ASP A   3      -9.710  20.737  29.526  0.00  0.00    -0.246 OA
ATOM     78  OD1 ASP A   3     -11.670  21.453  29.059  0.00  0.00    -0.246 OA
ENDBRANCH  75  76
ENDBRANCH  54  75
ENDBRANCH  50  54
ENDBRANCH  49  52
BRANCH  49  79
ATOM     79  CB  THR A   4     -15.949  24.447  29.591  0.00  0.00    +0.137 C 
ATOM     80  CG2 THR A   4     -15.786  25.947  29.777  0.00  0.00    +0.034 C 
BRANCH  79  81
ATOM     81  OG1 THR A   4     -15.838  24.134  28.192  0.00  0.00    -0.382 OA
ATOM     82  HG1 THR A   4     -15.978  23.163  28.060  0.00  0.00    +0.210 HD
ENDBRANCH  79  81
ENDBRANCH  49  79
ENDBRANCH  45  49
ENDBRANCH  44  47
ENDBRANCH   1  44
TORSDOF 35
REMARK  Name = ../refined-set-2016/1met/1met_pocket.pdb
REMARK  208 active torsions:
REMARK  status: ('A' for Active; 'I' for Inactive)
REMARK    1  A    between atoms: _1  and  _3
REMARK    2  A    between atoms: _3  and  _4
REMARK    3  A    between atoms: _3  and  _6
REMARK    4  A    between atoms: _6  and  _7
REMARK    5  A    between atoms: _7  and  _8
REMARK    6  A    between atoms: _8  and  _9
REMARK    7  A    between atoms: _18  and  _20
REMARK    8  A    between atoms: _20  and  _21
REMARK    9  A    between atoms: _20  and  _23
REMARK   10  A    between atoms: _23  and  _24
REMARK   11  A    between atoms: _27  and  _29
REMARK   12  A    between atoms: _29  and  _30
REMARK   13  A    between atoms: _29  and  _32
REMARK   14  A    between atoms: _32  and  _33
REMARK   15  A    between atoms: _36  and  _38
REMARK   16  A    between atoms: _38  and  _39
REMARK   17  A    between atoms: _38  and  _41
REMARK   18  A    between atoms: _41  and  _42
REMARK   19  A    between atoms: _45  and  _47
REMARK   20  A    between atoms: _47  and  _48
REMARK   21  A    between atoms: _47  and  _50
REMARK   22  A    between atoms: _50  and  _51
REMARK   23  A    between atoms: _54  and  _56
REMARK   24  A    between atoms: _56  and  _57
REMARK   25  A    between atoms: _59  and  _61
REMARK   26  A    between atoms: _61  and  _62
REMARK   27  A    between atoms: _65  and  _67
REMARK   28  A    between atoms: _67  and  _68
REMARK   29  A    between atoms: _67  and  _70
REMARK   30  A    between atoms: _70  and  _71
REMARK   31  A    between atoms: _74  and  _76
REMARK   32  A    between atoms: _76  and  _77
REMARK   33  A    between atoms: _76  and  _79
REMARK   34  A    between atoms: _79  and  _80
REMARK   35  A    between atoms: _83  and  _85
REMARK   36  A    between atoms: _85  and  _86
REMARK   37  A    between atoms: _85  and  _88
REMARK   38  A    between atoms: _88  and  _89
REMARK   39  A    between atoms: _92  and  _94
REMARK   40  A    between atoms: _94  and  _95
REMARK   41  A    between atoms: _94  and  _97
REMARK   42  A    between atoms: _100  and  _102
REMARK   43  A    between atoms: _102  and  _103
REMARK   44  A    between atoms: _102  and  _105
REMARK   45  A    between atoms: _105  and  _106
REMARK   46  A    between atoms: _109  and  _111
REMARK   47  A    between atoms: _111  and  _112
REMARK   48  A    between atoms: _114  and  _116
REMARK   49  A    between atoms: _116  and  _117
REMARK   50  A    between atoms: _119  and  _121
REMARK   51  A    between atoms: _121  and  _122
REMARK   52  A    between atoms: _121  and  _124
REMARK   53  A    between atoms: _124  and  _125
REMARK   54  A    between atoms: _128  and  _130
REMARK   55  A    between atoms: _130  and  _131
REMARK   56  A    between atoms: _133  and  _135
REMARK   57  A    between atoms: _135  and  _136
REMARK   58  A    between atoms: _138  and  _140
REMARK   59  A    between atoms: _140  and  _141
REMARK   60  A    between atoms: _140  and  _143
REMARK   61  A    between atoms: _143  and  _144
REMARK   62  A    between atoms: _147  and  _149
REMARK   63  A    between atoms: _149  and  _150
REMARK   64  A    between atoms: _149  and  _152
REMARK   65  A    between atoms: _152  and  _153
REMARK   66  A    between atoms: _157  and  _158
REMARK   67  A    between atoms: _163  and  _165
REMARK   68  A    between atoms: _165  and  _166
REMARK   69  A    between atoms: _165  and  _168
REMARK   70  A    between atoms: _168  and  _169
REMARK   71  A    between atoms: _173  and  _174
REMARK   72  A    between atoms: _179  and  _181
REMARK   73  A    between atoms: _181  and  _182
REMARK   74  A    between atoms: _181  and  _184
REMARK   75  A    between atoms: _184  and  _185
REMARK   76  A    between atoms: _191  and  _193
REMARK   77  A    between atoms: _193  and  _194
REMARK   78  A    between atoms: _193  and  _196
REMARK   79  A    between atoms: _196  and  _197
REMARK   80  A    between atoms: _202  and  _204
REMARK   81  A    between atoms: _204  and  _205
REMARK   82  A    between atoms: _204  and  _207
REMARK   83  A    between atoms: _207  and  _208
REMARK   84  A    between atoms: _211  and  _213
REMARK   85  A    between atoms: _213  and  _214
REMARK   86  A    between atoms: _213  and  _216
REMARK   87  A    between atoms: _216  and  _217
REMARK   88  A    between atoms: _220  and  _222
REMARK   89  A    between atoms: _222  and  _223
REMARK   90  A    between atoms: _225  and  _227
REMARK   91  A    between atoms: _227  and  _228
REMARK   92  A    between atoms: _227  and  _230
REMARK   93  A    between atoms: _230  and  _231
REMARK   94  A    between atoms: _231  and  _232
REMARK   95  A    between atoms: _232  and  _233
REMARK   96  A    between atoms: _242  and  _244
REMARK   97  A    between atoms: _244  and  _245
REMARK   98  A    between atoms: _244  and  _247
REMARK   99  A    between atoms: _247  and  _248
REMARK  100  A    between atoms: _253  and  _255
REMARK  101  A    between atoms: _255  and  _256
REMARK  102  A    between atoms: _255  and  _258
REMARK  103  A    between atoms: _258  and  _259
REMARK  104  A    between atoms: _259  and  _260
REMARK  105  A    between atoms: _260  and  _261
REMARK  106  A    between atoms: _270  and  _272
REMARK  107  A    between atoms: _272  and  _273
REMARK  108  A    between atoms: _272  and  _275
REMARK  109  A    between atoms: _275  and  _276
REMARK  110  A    between atoms: _279  and  _281
REMARK  111  A    between atoms: _281  and  _282
REMARK  112  A    between atoms: _281  and  _284
REMARK  113  A    between atoms: _284  and  _285
REMARK  114  A    between atoms: _288  and  _290
REMARK  115  A    between atoms: _290  and  _291
REMARK  116  A    between atoms: _290  and  _293
REMARK  117  A    between atoms: _293  and  _294
REMARK  118  A    between atoms: _297  and  _299
REMARK  119  A    between atoms: _299  and  _300
REMARK  120  A    between atoms: _299  and  _302
REMARK  121  A    between atoms: _302  and  _303
REMARK  122  A    between atoms: _306  and  _308
REMARK  123  A    between atoms: _308  and  _309
REMARK  124  A    between atoms: _311  and  _313
REMARK  125  A    between atoms: _313  and  _314
REMARK  126  A    between atoms: _317  and  _319
REMARK  127  A    between atoms: _319  and  _320
REMARK  128  A    between atoms: _319  and  _322
REMARK  129  A    between atoms: _322  and  _323
REMARK  130  A    between atoms: _326  and  _328
REMARK  131  A    between atoms: _328  and  _329
REMARK  132  A    between atoms: _328  and  _331
REMARK  133  A    between atoms: _331  and  _332
REMARK  134  A    between atoms: _335  and  _337
REMARK  135  A    between atoms: _337  and  _338
REMARK  136  A    between atoms: _337  and  _340
REMARK  137  A    between atoms: _340  and  _341
REMARK  138  A    between atoms: _344  and  _346
REMARK  139  A    between atoms: _346  and  _347
REMARK  140  A    between atoms: _346  and  _349
REMARK  141  A    between atoms: _352  and  _354
REMARK  142  A    between atoms: _354  and  _355
REMARK  143  A    between atoms: _354  and  _357
REMARK  144  A    between atoms: _357  and  _358
REMARK  145  A    between atoms: _358  and  _359
REMARK  146  A    between atoms: _359  and  _360
REMARK  147  A    between atoms: _360  and  _361
REMARK  148  A    between atoms: _365  and  _367
REMARK  149  A    between atoms: _367  and  _368
REMARK  150  A    between atoms: _367  and  _370
REMARK  151  A    between atoms: _370  and  _371
REMARK  152  A    between atoms: _374  and  _376
REMARK  153  A    between atoms: _376  and  _377
REMARK  154  A    between atoms: _379  and  _381
REMARK  155  A    between atoms: _381  and  _382
REMARK  156  A    between atoms: _384  and  _386
REMARK  157  A    between atoms: _386  and  _387
REMARK  158  A    between atoms: _386  and  _389
REMARK  159  A    between atoms: _389  and  _390
REMARK  160  A    between atoms: _393  and  _395
REMARK  161  A    between atoms: _395  and  _396
REMARK  162  A    between atoms: _398  and  _400
REMARK  163  A    between atoms: _400  and  _401
REMARK  164  A    between atoms: _403  and  _405
REMARK  165  A    between atoms: _405  and  _406
REMARK  166  A    between atoms: _405  and  _408
REMARK  167  A    between atoms: _408  and  _409
REMARK  168  A    between atoms: _412  and  _414
REMARK  169  A    between atoms: _414  and  _415
REMARK  170  A    between atoms: _414  and  _417
REMARK  171  A    between atoms: _420  and  _422
REMARK  172  A    between atoms: _422  and  _423
REMARK  173  A    between atoms: _422  and  _425
REMARK  174  A    between atoms: _425  and  _426
REMARK  175  A    between atoms: _430  and  _431
REMARK  176  A    between atoms: _436  and  _438
REMARK  177  A    between atoms: _438  and  _439
REMARK  178  A    between atoms: _438  and  _441
REMARK  179  A    between atoms: _441  and  _442
REMARK  180  A    between atoms: _446  and  _447
REMARK  181  A    between atoms: _452  and  _454
REMARK  182  A    between atoms: _454  and  _455
REMARK  183  A    between atoms: _454  and  _457
REMARK  184  A    between atoms: _457  and  _458
REMARK  185  A    between atoms: _464  and  _466
REMARK  186  A    between atoms: _466  and  _467
REMARK  187  A    between atoms: _466  and  _469
REMARK  188  A    between atoms: _469  and  _470
REMARK  189  A    between atoms: _475  and  _477
REMARK  190  A    between atoms: _477  and  _478
REMARK  191  A    between atoms: _477  and  _480
REMARK  192  A    between atoms: _480  and  _481
REMARK  193  A    between atoms: _484  and  _486
REMARK  194  A    between atoms: _486  and  _487
REMARK  195  A    between atoms: _486  and  _489
REMARK  196  A    between atoms: _489  and  _490
REMARK  197  A    between atoms: _493  and  _495
REMARK  198  A    between atoms: _495  and  _496
REMARK  199  A    between atoms: _498  and  _500
REMARK  200  A    between atoms: _500  and  _501
REMARK  201  A    between atoms: _500  and  _503
REMARK  202  A    between atoms: _503  and  _504
REMARK  203  A    between atoms: _504  and  _505
REMARK  204  A    between atoms: _505  and  _506
REMARK  205  A    between atoms: _515  and  _517
REMARK  206  A    between atoms: _517  and  _518
REMARK  207  A    between atoms: _517  and  _520
REMARK  208  A    between atoms: _520  and  _521
REMARK                            x       y       z     vdW  Elec       q    Type
REMARK                         _______ _______ _______ _____ _____    ______ ____
ROOT
ATOM      1  C   GLY A   3      -9.392  10.281  28.678  0.00  0.00    +0.243 C 
ATOM      2  O   GLY A   3      -9.714   9.108  28.649  0.00  0.00    -0.273 OA
ATOM      3  N   ILE A   4      -9.126  10.993  27.567  0.00  0.00    -0.297 N 
ATOM      4  H   ILE A   4      -9.036  12.027  27.631  0.00  0.00    +0.150 HD
ENDROOT
BRANCH   3   5
ATOM      5  CA  ILE A   4      -8.961  10.333  26.265  0.00  0.00    +0.149 C 
BRANCH   5   6
ATOM      6  C   ILE A   4      -7.636   9.684  26.377  0.00  0.00    +0.241 C 
ATOM      7  O   ILE A   4      -6.686  10.349  26.729  0.00  0.00    -0.273 OA
ATOM      8  N   GLY A   5      -7.553   8.421  26.070  0.00  0.00    -0.295 N 
ATOM      9  H   GLY A   5      -8.368   7.847  25.773  0.00  0.00    +0.150 HD
BRANCH   8  10
ATOM     10  CA  GLY A   5      -6.195   7.895  26.187  0.00  0.00    +0.176 C 
BRANCH  10  11
ATOM     11  C   GLY A   5      -5.955   7.011  27.394  0.00  0.00    +0.243 C 
ATOM     12  N   GLY A   6      -6.434   7.404  28.556  0.00  0.00    -0.296 N 
ATOM     13  H   GLY A   6      -6.902   8.324  28.684  0.00  0.00    +0.150 HD
ATOM     14  O   GLY A   5      -5.359   5.959  27.276  0.00  0.00    -0.273 OA
BRANCH  12  15
ATOM     15  CA  GLY A   6      -6.261   6.455  29.652  0.00  0.00    +0.163 C 
BRANCH  15  16
ATOM     16  C   GLY A   6      -6.372   7.132  30.981  0.00  0.00    +0.229 C 
ATOM     17  O   GLY A   6      -6.942   8.209  31.085  0.00  0.00    -0.286 OA
ENDBRANCH  15  16
ENDBRANCH  12  15
ENDBRANCH  10  11
ENDBRANCH   8  10
ENDBRANCH   5   6
BRANCH   5  18
ATOM     18  CB  ILE A   4      -8.881  11.403  25.142  0.00  0.00    +0.027 C 
ATOM     19  CG2 ILE A   4      -7.740  11.283  24.109  0.00  0.00    +0.002 C 
BRANCH  18  20
ATOM     20  CG1 ILE A   4     -10.129  11.442  24.276  0.00  0.00    +0.002 C 
ATOM     21  CD1 ILE A   4     -11.374  11.889  25.023  0.00  0.00    +0.000 C 
ENDBRANCH  18  20
ENDBRANCH   5  18
ENDBRANCH   3   5
BRANCH   1  22
ATOM     22  CA  GLY A   3      -9.226  11.026  29.994  0.00  0.00    +0.176 C 
BRANCH  22  25
ATOM     23  C   GLY A   2      -9.607  10.326  32.286  0.00  0.00    +0.243 C 
ATOM     24  O   GLY A   2     -10.376  11.247  32.495  0.00  0.00    -0.273 OA
ATOM     25  N   GLY A   3      -8.970  10.147  31.137  0.00  0.00    -0.295 N 
ATOM     26  H   GLY A   3      -8.281   9.374  31.046  0.00  0.00    +0.150 HD
BRANCH  23  27
ATOM     27  CA  GLY A   2      -9.337   9.287  33.369  0.00  0.00    +0.176 C 
BRANCH  27  30
ATOM     28  C   ILE A   1      -8.189   9.863  35.362  0.00  0.00    +0.238 C 
ATOM     29  O   ILE A   1      -7.159   9.415  34.881  0.00  0.00    -0.274 OA
ATOM     30  N   GLY A   2      -9.353   9.808  34.740  0.00  0.00    -0.296 N 
ATOM     31  H   GLY A   2     -10.234  10.118  35.198  0.00  0.00    +0.150 HD
BRANCH  28  32
ATOM     32  CA  ILE A   1      -8.186  10.500  36.735  0.00  0.00    +0.145 C 
BRANCH  32  33
ATOM     33  N   ILE A   1      -7.126   9.895  37.542  0.00  0.00    -0.238 NA
ATOM     34  H   ILE A   1      -6.147   9.877  37.192  0.00  0.00    +0.142 HD
ENDBRANCH  32  33
BRANCH  32  35
ATOM     35  CB  ILE A   1      -7.992  12.038  36.649  0.00  0.00    +0.025 C 
ATOM     36  CG2 ILE A   1      -8.037  12.697  38.034  0.00  0.00    +0.002 C 
BRANCH  35  37
ATOM     37  CG1 ILE A   1      -6.720  12.486  35.950  0.00  0.00    +0.002 C 
ATOM     38  CD1 ILE A   1      -6.674  13.997  35.748  0.00  0.00    +0.000 C 
ENDBRANCH  35  37
ENDBRANCH  32  35
ENDBRANCH  28  32
ENDBRANCH  27  30
ENDBRANCH  23  27
ENDBRANCH  22  25
ENDBRANCH   1  22
TORSDOF 16
REMARK  Name = ../refined-set-2016/1met/1met_pocket.pdb
REMARK  208 active torsions:
REMARK  status: ('A' for Active; 'I' for Inactive)
REMARK    1  A    between atoms: _1  and  _3
REMARK    2  A    between atoms: _3  and  _4
REMARK    3  A    between atoms: _3  and  _6
REMARK    4  A    between atoms: _6  and  _7
REMARK    5  A    between atoms: _7  and  _8
REMARK    6  A    between atoms: _8  and  _9
REMARK    7  A    between atoms: _18  and  _20
REMARK    8  A    between atoms: _20  and  _21
REMARK    9  A    between atoms: _20  and  _23
REMARK   10  A    between atoms: _23  and  _24
REMARK   11  A    between atoms: _27  and  _29
REMARK   12  A    between atoms: _29  and  _30
REMARK   13  A    between atoms: _29  and  _32
REMARK   14  A    between atoms: _32  and  _33
REMARK   15  A    between atoms: _36  and  _38
REMARK   16  A    between atoms: _38  and  _39
REMARK   17  A    between atoms: _38  and  _41
REMARK   18  A    between atoms: _41  and  _42
REMARK   19  A    between atoms: _45  and  _47
REMARK   20  A    between atoms: _47  and  _48
REMARK   21  A    between atoms: _47  and  _50
REMARK   22  A    between atoms: _50  and  _51
REMARK   23  A    between atoms: _54  and  _56
REMARK   24  A    between atoms: _56  and  _57
REMARK   25  A    between atoms: _59  and  _61
REMARK   26  A    between atoms: _61  and  _62
REMARK   27  A    between atoms: _65  and  _67
REMARK   28  A    between atoms: _67  and  _68
REMARK   29  A    between atoms: _67  and  _70
REMARK   30  A    between atoms: _70  and  _71
REMARK   31  A    between atoms: _74  and  _76
REMARK   32  A    between atoms: _76  and  _77
REMARK   33  A    between atoms: _76  and  _79
REMARK   34  A    between atoms: _79  and  _80
REMARK   35  A    between atoms: _83  and  _85
REMARK   36  A    between atoms: _85  and  _86
REMARK   37  A    between atoms: _85  and  _88
REMARK   38  A    between atoms: _88  and  _89
REMARK   39  A    between atoms: _92  and  _94
REMARK   40  A    between atoms: _94  and  _95
REMARK   41  A    between atoms: _94  and  _97
REMARK   42  A    between atoms: _100  and  _102
REMARK   43  A    between atoms: _102  and  _103
REMARK   44  A    between atoms: _102  and  _105
REMARK   45  A    between atoms: _105  and  _106
REMARK   46  A    between atoms: _109  and  _111
REMARK   47  A    between atoms: _111  and  _112
REMARK   48  A    between atoms: _114  and  _116
REMARK   49  A    between atoms: _116  and  _117
REMARK   50  A    between atoms: _119  and  _121
REMARK   51  A    between atoms: _121  and  _122
REMARK   52  A    between atoms: _121  and  _124
REMARK   53  A    between atoms: _124  and  _125
REMARK   54  A    between atoms: _128  and  _130
REMARK   55  A    between atoms: _130  and  _131
REMARK   56  A    between atoms: _133  and  _135
REMARK   57  A    between atoms: _135  and  _136
REMARK   58  A    between atoms: _138  and  _140
REMARK   59  A    between atoms: _140  and  _141
REMARK   60  A    between atoms: _140  and  _143
REMARK   61  A    between atoms: _143  and  _144
REMARK   62  A    between atoms: _147  and  _149
REMARK   63  A    between atoms: _149  and  _150
REMARK   64  A    between atoms: _149  and  _152
REMARK   65  A    between atoms: _152  and  _153
REMARK   66  A    between atoms: _157  and  _158
REMARK   67  A    between atoms: _163  and  _165
REMARK   68  A    between atoms: _165  and  _166
REMARK   69  A    between atoms: _165  and  _168
REMARK   70  A    between atoms: _168  and  _169
REMARK   71  A    between atoms: _173  and  _174
REMARK   72  A    between atoms: _179  and  _181
REMARK   73  A    between atoms: _181  and  _182
REMARK   74  A    between atoms: _181  and  _184
REMARK   75  A    between atoms: _184  and  _185
REMARK   76  A    between atoms: _191  and  _193
REMARK   77  A    between atoms: _193  and  _194
REMARK   78  A    between atoms: _193  and  _196
REMARK   79  A    between atoms: _196  and  _197
REMARK   80  A    between atoms: _202  and  _204
REMARK   81  A    between atoms: _204  and  _205
REMARK   82  A    between atoms: _204  and  _207
REMARK   83  A    between atoms: _207  and  _208
REMARK   84  A    between atoms: _211  and  _213
REMARK   85  A    between atoms: _213  and  _214
REMARK   86  A    between atoms: _213  and  _216
REMARK   87  A    between atoms: _216  and  _217
REMARK   88  A    between atoms: _220  and  _222
REMARK   89  A    between atoms: _222  and  _223
REMARK   90  A    between atoms: _225  and  _227
REMARK   91  A    between atoms: _227  and  _228
REMARK   92  A    between atoms: _227  and  _230
REMARK   93  A    between atoms: _230  and  _231
REMARK   94  A    between atoms: _231  and  _232
REMARK   95  A    between atoms: _232  and  _233
REMARK   96  A    between atoms: _242  and  _244
REMARK   97  A    between atoms: _244  and  _245
REMARK   98  A    between atoms: _244  and  _247
REMARK   99  A    between atoms: _247  and  _248
REMARK  100  A    between atoms: _253  and  _255
REMARK  101  A    between atoms: _255  and  _256
REMARK  102  A    between atoms: _255  and  _258
REMARK  103  A    between atoms: _258  and  _259
REMARK  104  A    between atoms: _259  and  _260
REMARK  105  A    between atoms: _260  and  _261
REMARK  106  A    between atoms: _270  and  _272
REMARK  107  A    between atoms: _272  and  _273
REMARK  108  A    between atoms: _272  and  _275
REMARK  109  A    between atoms: _275  and  _276
REMARK  110  A    between atoms: _279  and  _281
REMARK  111  A    between atoms: _281  and  _282
REMARK  112  A    between atoms: _281  and  _284
REMARK  113  A    between atoms: _284  and  _285
REMARK  114  A    between atoms: _288  and  _290
REMARK  115  A    between atoms: _290  and  _291
REMARK  116  A    between atoms: _290  and  _293
REMARK  117  A    between atoms: _293  and  _294
REMARK  118  A    between atoms: _297  and  _299
REMARK  119  A    between atoms: _299  and  _300
REMARK  120  A    between atoms: _299  and  _302
REMARK  121  A    between atoms: _302  and  _303
REMARK  122  A    between atoms: _306  and  _308
REMARK  123  A    between atoms: _308  and  _309
REMARK  124  A    between atoms: _311  and  _313
REMARK  125  A    between atoms: _313  and  _314
REMARK  126  A    between atoms: _317  and  _319
REMARK  127  A    between atoms: _319  and  _320
REMARK  128  A    between atoms: _319  and  _322
REMARK  129  A    between atoms: _322  and  _323
REMARK  130  A    between atoms: _326  and  _328
REMARK  131  A    between atoms: _328  and  _329
REMARK  132  A    between atoms: _328  and  _331
REMARK  133  A    between atoms: _331  and  _332
REMARK  134  A    between atoms: _335  and  _337
REMARK  135  A    between atoms: _337  and  _338
REMARK  136  A    between atoms: _337  and  _340
REMARK  137  A    between atoms: _340  and  _341
REMARK  138  A    between atoms: _344  and  _346
REMARK  139  A    between atoms: _346  and  _347
REMARK  140  A    between atoms: _346  and  _349
REMARK  141  A    between atoms: _352  and  _354
REMARK  142  A    between atoms: _354  and  _355
REMARK  143  A    between atoms: _354  and  _357
REMARK  144  A    between atoms: _357  and  _358
REMARK  145  A    between atoms: _358  and  _359
REMARK  146  A    between atoms: _359  and  _360
REMARK  147  A    between atoms: _360  and  _361
REMARK  148  A    between atoms: _365  and  _367
REMARK  149  A    between atoms: _367  and  _368
REMARK  150  A    between atoms: _367  and  _370
REMARK  151  A    between atoms: _370  and  _371
REMARK  152  A    between atoms: _374  and  _376
REMARK  153  A    between atoms: _376  and  _377
REMARK  154  A    between atoms: _379  and  _381
REMARK  155  A    between atoms: _381  and  _382
REMARK  156  A    between atoms: _384  and  _386
REMARK  157  A    between atoms: _386  and  _387
REMARK  158  A    between atoms: _386  and  _389
REMARK  159  A    between atoms: _389  and  _390
REMARK  160  A    between atoms: _393  and  _395
REMARK  161  A    between atoms: _395  and  _396
REMARK  162  A    between atoms: _398  and  _400
REMARK  163  A    between atoms: _400  and  _401
REMARK  164  A    between atoms: _403  and  _405
REMARK  165  A    between atoms: _405  and  _406
REMARK  166  A    between atoms: _405  and  _408
REMARK  167  A    between atoms: _408  and  _409
REMARK  168  A    between atoms: _412  and  _414
REMARK  169  A    between atoms: _414  and  _415
REMARK  170  A    between atoms: _414  and  _417
REMARK  171  A    between atoms: _420  and  _422
REMARK  172  A    between atoms: _422  and  _423
REMARK  173  A    between atoms: _422  and  _425
REMARK  174  A    between atoms: _425  and  _426
REMARK  175  A    between atoms: _430  and  _431
REMARK  176  A    between atoms: _436  and  _438
REMARK  177  A    between atoms: _438  and  _439
REMARK  178  A    between atoms: _438  and  _441
REMARK  179  A    between atoms: _441  and  _442
REMARK  180  A    between atoms: _446  and  _447
REMARK  181  A    between atoms: _452  and  _454
REMARK  182  A    between atoms: _454  and  _455
REMARK  183  A    between atoms: _454  and  _457
REMARK  184  A    between atoms: _457  and  _458
REMARK  185  A    between atoms: _464  and  _466
REMARK  186  A    between atoms: _466  and  _467
REMARK  187  A    between atoms: _466  and  _469
REMARK  188  A    between atoms: _469  and  _470
REMARK  189  A    between atoms: _475  and  _477
REMARK  190  A    between atoms: _477  and  _478
REMARK  191  A    between atoms: _477  and  _480
REMARK  192  A    between atoms: _480  and  _481
REMARK  193  A    between atoms: _484  and  _486
REMARK  194  A    between atoms: _486  and  _487
REMARK  195  A    between atoms: _486  and  _489
REMARK  196  A    between atoms: _489  and  _490
REMARK  197  A    between atoms: _493  and  _495
REMARK  198  A    between atoms: _495  and  _496
REMARK  199  A    between atoms: _498  and  _500
REMARK  200  A    between atoms: _500  and  _501
REMARK  201  A    between atoms: _500  and  _503
REMARK  202  A    between atoms: _503  and  _504
REMARK  203  A    between atoms: _504  and  _505
REMARK  204  A    between atoms: _505  and  _506
REMARK  205  A    between atoms: _515  and  _517
REMARK  206  A    between atoms: _517  and  _518
REMARK  207  A    between atoms: _517  and  _520
REMARK  208  A    between atoms: _520  and  _521
REMARK                            x       y       z     vdW  Elec       q    Type
REMARK                         _______ _______ _______ _____ _____    ______ ____
ROOT
ATOM      1  CA  ILE A   1      -3.159   8.813  35.127  0.00  0.00    +0.133 C 
ENDROOT
BRANCH   1   2
ATOM      2  N   ILE A   1      -4.470   8.478  34.566  0.00  0.00    -0.239 NA
ATOM      3  H   ILE A   1      -5.313   9.053  34.767  0.00  0.00    +0.142 HD
ENDBRANCH   1   2
BRANCH   1   4
ATOM      4  C   ILE A   1      -3.291   8.930  36.640  0.00  0.00    +0.224 C 
ATOM      5  O   ILE A   1      -4.371   9.140  37.181  0.00  0.00    -0.287 OA
ENDBRANCH   1   4
BRANCH   1   6
ATOM      6  CB  ILE A   1      -2.585  10.142  34.555  0.00  0.00    +0.023 C 
ATOM      7  CG2 ILE A   1      -2.016  10.007  33.136  0.00  0.00    +0.002 C 
BRANCH   6   8
ATOM      8  CG1 ILE A   1      -3.545  11.337  34.611  0.00  0.00    +0.002 C 
ATOM      9  CD1 ILE A   1      -2.815  12.686  34.544  0.00  0.00    +0.000 C 
ENDBRANCH   6   8
ENDBRANCH   1   6
TORSDOF 4
REMARK  Name = ../refined-set-2016/1met/1met_pocket.pdb
REMARK  208 active torsions:
REMARK  status: ('A' for Active; 'I' for Inactive)
REMARK    1  A    between atoms: _1  and  _3
REMARK    2  A    between atoms: _3  and  _4
REMARK    3  A    between atoms: _3  and  _6
REMARK    4  A    between atoms: _6  and  _7
REMARK    5  A    between atoms: _7  and  _8
REMARK    6  A    between atoms: _8  and  _9
REMARK    7  A    between atoms: _18  and  _20
REMARK    8  A    between atoms: _20  and  _21
REMARK    9  A    between atoms: _20  and  _23
REMARK   10  A    between atoms: _23  and  _24
REMARK   11  A    between atoms: _27  and  _29
REMARK   12  A    between atoms: _29  and  _30
REMARK   13  A    between atoms: _29  and  _32
REMARK   14  A    between atoms: _32  and  _33
REMARK   15  A    between atoms: _36  and  _38
REMARK   16  A    between atoms: _38  and  _39
REMARK   17  A    between atoms: _38  and  _41
REMARK   18  A    between atoms: _41  and  _42
REMARK   19  A    between atoms: _45  and  _47
REMARK   20  A    between atoms: _47  and  _48
REMARK   21  A    between atoms: _47  and  _50
REMARK   22  A    between atoms: _50  and  _51
REMARK   23  A    between atoms: _54  and  _56
REMARK   24  A    between atoms: _56  and  _57
REMARK   25  A    between atoms: _59  and  _61
REMARK   26  A    between atoms: _61  and  _62
REMARK   27  A    between atoms: _65  and  _67
REMARK   28  A    between atoms: _67  and  _68
REMARK   29  A    between atoms: _67  and  _70
REMARK   30  A    between atoms: _70  and  _71
REMARK   31  A    between atoms: _74  and  _76
REMARK   32  A    between atoms: _76  and  _77
REMARK   33  A    between atoms: _76  and  _79
REMARK   34  A    between atoms: _79  and  _80
REMARK   35  A    between atoms: _83  and  _85
REMARK   36  A    between atoms: _85  and  _86
REMARK   37  A    between atoms: _85  and  _88
REMARK   38  A    between atoms: _88  and  _89
REMARK   39  A    between atoms: _92  and  _94
REMARK   40  A    between atoms: _94  and  _95
REMARK   41  A    between atoms: _94  and  _97
REMARK   42  A    between atoms: _100  and  _102
REMARK   43  A    between atoms: _102  and  _103
REMARK   44  A    between atoms: _102  and  _105
REMARK   45  A    between atoms: _105  and  _106
REMARK   46  A    between atoms: _109  and  _111
REMARK   47  A    between atoms: _111  and  _112
REMARK   48  A    between atoms: _114  and  _116
REMARK   49  A    between atoms: _116  and  _117
REMARK   50  A    between atoms: _119  and  _121
REMARK   51  A    between atoms: _121  and  _122
REMARK   52  A    between atoms: _121  and  _124
REMARK   53  A    between atoms: _124  and  _125
REMARK   54  A    between atoms: _128  and  _130
REMARK   55  A    between atoms: _130  and  _131
REMARK   56  A    between atoms: _133  and  _135
REMARK   57  A    between atoms: _135  and  _136
REMARK   58  A    between atoms: _138  and  _140
REMARK   59  A    between atoms: _140  and  _141
REMARK   60  A    between atoms: _140  and  _143
REMARK   61  A    between atoms: _143  and  _144
REMARK   62  A    between atoms: _147  and  _149
REMARK   63  A    between atoms: _149  and  _150
REMARK   64  A    between atoms: _149  and  _152
REMARK   65  A    between atoms: _152  and  _153
REMARK   66  A    between atoms: _157  and  _158
REMARK   67  A    between atoms: _163  and  _165
REMARK   68  A    between atoms: _165  and  _166
REMARK   69  A    between atoms: _165  and  _168
REMARK   70  A    between atoms: _168  and  _169
REMARK   71  A    between atoms: _173  and  _174
REMARK   72  A    between atoms: _179  and  _181
REMARK   73  A    between atoms: _181  and  _182
REMARK   74  A    between atoms: _181  and  _184
REMARK   75  A    between atoms: _184  and  _185
REMARK   76  A    between atoms: _191  and  _193
REMARK   77  A    between atoms: _193  and  _194
REMARK   78  A    between atoms: _193  and  _196
REMARK   79  A    between atoms: _196  and  _197
REMARK   80  A    between atoms: _202  and  _204
REMARK   81  A    between atoms: _204  and  _205
REMARK   82  A    between atoms: _204  and  _207
REMARK   83  A    between atoms: _207  and  _208
REMARK   84  A    between atoms: _211  and  _213
REMARK   85  A    between atoms: _213  and  _214
REMARK   86  A    between atoms: _213  and  _216
REMARK   87  A    between atoms: _216  and  _217
REMARK   88  A    between atoms: _220  and  _222
REMARK   89  A    between atoms: _222  and  _223
REMARK   90  A    between atoms: _225  and  _227
REMARK   91  A    between atoms: _227  and  _228
REMARK   92  A    between atoms: _227  and  _230
REMARK   93  A    between atoms: _230  and  _231
REMARK   94  A    between atoms: _231  and  _232
REMARK   95  A    between atoms: _232  and  _233
REMARK   96  A    between atoms: _242  and  _244
REMARK   97  A    between atoms: _244  and  _245
REMARK   98  A    between atoms: _244  and  _247
REMARK   99  A    between atoms: _247  and  _248
REMARK  100  A    between atoms: _253  and  _255
REMARK  101  A    between atoms: _255  and  _256
REMARK  102  A    between atoms: _255  and  _258
REMARK  103  A    between atoms: _258  and  _259
REMARK  104  A    between atoms: _259  and  _260
REMARK  105  A    between atoms: _260  and  _261
REMARK  106  A    between atoms: _270  and  _272
REMARK  107  A    between atoms: _272  and  _273
REMARK  108  A    between atoms: _272  and  _275
REMARK  109  A    between atoms: _275  and  _276
REMARK  110  A    between atoms: _279  and  _281
REMARK  111  A    between atoms: _281  and  _282
REMARK  112  A    between atoms: _281  and  _284
REMARK  113  A    between atoms: _284  and  _285
REMARK  114  A    between atoms: _288  and  _290
REMARK  115  A    between atoms: _290  and  _291
REMARK  116  A    between atoms: _290  and  _293
REMARK  117  A    between atoms: _293  and  _294
REMARK  118  A    between atoms: _297  and  _299
REMARK  119  A    between atoms: _299  and  _300
REMARK  120  A    between atoms: _299  and  _302
REMARK  121  A    between atoms: _302  and  _303
REMARK  122  A    between atoms: _306  and  _308
REMARK  123  A    between atoms: _308  and  _309
REMARK  124  A    between atoms: _311  and  _313
REMARK  125  A    between atoms: _313  and  _314
REMARK  126  A    between atoms: _317  and  _319
REMARK  127  A    between atoms: _319  and  _320
REMARK  128  A    between atoms: _319  and  _322
REMARK  129  A    between atoms: _322  and  _323
REMARK  130  A    between atoms: _326  and  _328
REMARK  131  A    between atoms: _328  and  _329
REMARK  132  A    between atoms: _328  and  _331
REMARK  133  A    between atoms: _331  and  _332
REMARK  134  A    between atoms: _335  and  _337
REMARK  135  A    between atoms: _337  and  _338
REMARK  136  A    between atoms: _337  and  _340
REMARK  137  A    between atoms: _340  and  _341
REMARK  138  A    between atoms: _344  and  _346
REMARK  139  A    between atoms: _346  and  _347
REMARK  140  A    between atoms: _346  and  _349
REMARK  141  A    between atoms: _352  and  _354
REMARK  142  A    between atoms: _354  and  _355
REMARK  143  A    between atoms: _354  and  _357
REMARK  144  A    between atoms: _357  and  _358
REMARK  145  A    between atoms: _358  and  _359
REMARK  146  A    between atoms: _359  and  _360
REMARK  147  A    between atoms: _360  and  _361
REMARK  148  A    between atoms: _365  and  _367
REMARK  149  A    between atoms: _367  and  _368
REMARK  150  A    between atoms: _367  and  _370
REMARK  151  A    between atoms: _370  and  _371
REMARK  152  A    between atoms: _374  and  _376
REMARK  153  A    between atoms: _376  and  _377
REMARK  154  A    between atoms: _379  and  _381
REMARK  155  A    between atoms: _381  and  _382
REMARK  156  A    between atoms: _384  and  _386
REMARK  157  A    between atoms: _386  and  _387
REMARK  158  A    between atoms: _386  and  _389
REMARK  159  A    between atoms: _389  and  _390
REMARK  160  A    between atoms: _393  and  _395
REMARK  161  A    between atoms: _395  and  _396
REMARK  162  A    between atoms: _398  and  _400
REMARK  163  A    between atoms: _400  and  _401
REMARK  164  A    between atoms: _403  and  _405
REMARK  165  A    between atoms: _405  and  _406
REMARK  166  A    between atoms: _405  and  _408
REMARK  167  A    between atoms: _408  and  _409
REMARK  168  A    between atoms: _412  and  _414
REMARK  169  A    between atoms: _414  and  _415
REMARK  170  A    between atoms: _414  and  _417
REMARK  171  A    between atoms: _420  and  _422
REMARK  172  A    between atoms: _422  and  _423
REMARK  173  A    between atoms: _422  and  _425
REMARK  174  A    between atoms: _425  and  _426
REMARK  175  A    between atoms: _430  and  _431
REMARK  176  A    between atoms: _436  and  _438
REMARK  177  A    between atoms: _438  and  _439
REMARK  178  A    between atoms: _438  and  _441
REMARK  179  A    between atoms: _441  and  _442
REMARK  180  A    between atoms: _446  and  _447
REMARK  181  A    between atoms: _452  and  _454
REMARK  182  A    between atoms: _454  and  _455
REMARK  183  A    between atoms: _454  and  _457
REMARK  184  A    between atoms: _457  and  _458
REMARK  185  A    between atoms: _464  and  _466
REMARK  186  A    between atoms: _466  and  _467
REMARK  187  A    between atoms: _466  and  _469
REMARK  188  A    between atoms: _469  and  _470
REMARK  189  A    between atoms: _475  and  _477
REMARK  190  A    between atoms: _477  and  _478
REMARK  191  A    between atoms: _477  and  _480
REMARK  192  A    between atoms: _480  and  _481
REMARK  193  A    between atoms: _484  and  _486
REMARK  194  A    between atoms: _486  and  _487
REMARK  195  A    between atoms: _486  and  _489
REMARK  196  A    between atoms: _489  and  _490
REMARK  197  A    between atoms: _493  and  _495
REMARK  198  A    between atoms: _495  and  _496
REMARK  199  A    between atoms: _498  and  _500
REMARK  200  A    between atoms: _500  and  _501
REMARK  201  A    between atoms: _500  and  _503
REMARK  202  A    between atoms: _503  and  _504
REMARK  203  A    between atoms: _504  and  _505
REMARK  204  A    between atoms: _505  and  _506
REMARK  205  A    between atoms: _515  and  _517
REMARK  206  A    between atoms: _517  and  _518
REMARK  207  A    between atoms: _517  and  _520
REMARK  208  A    between atoms: _520  and  _521
REMARK                            x       y       z     vdW  Elec       q    Type
REMARK                         _______ _______ _______ _____ _____    ______ ____
ROOT
ATOM      1  CA  LEU A   1      -4.385  17.747  41.092  0.00  0.00    +0.133 C 
ENDROOT
BRANCH   1   2
ATOM      2  N   LEU A   1      -4.932  19.079  41.293  0.00  0.00    -0.239 NA
ATOM      3  H   LEU A   1      -5.298  19.611  40.478  0.00  0.00    +0.142 HD
ENDBRANCH   1   2
BRANCH   1   4
ATOM      4  C   LEU A   1      -3.099  17.915  40.353  0.00  0.00    +0.224 C 
ATOM      5  O   LEU A   1      -3.074  18.578  39.334  0.00  0.00    -0.287 OA
ENDBRANCH   1   4
BRANCH   1   6
ATOM      6  CB  LEU A   1      -5.320  17.003  40.137  0.00  0.00    +0.025 C 
BRANCH   6   7
ATOM      7  CG  LEU A   1      -6.471  16.231  40.755  0.00  0.00    +0.002 C 
ATOM      8  CD2 LEU A   1      -7.011  16.774  42.074  0.00  0.00    +0.000 C 
ATOM      9  CD1 LEU A   1      -7.552  16.083  39.695  0.00  0.00    +0.000 C 
ENDBRANCH   6   7
ENDBRANCH   1   6
TORSDOF 4
REMARK  Name = ../refined-set-2016/1met/1met_pocket.pdb
REMARK  208 active torsions:
REMARK  status: ('A' for Active; 'I' for Inactive)
REMARK    1  A    between atoms: _1  and  _3
REMARK    2  A    between atoms: _3  and  _4
REMARK    3  A    between atoms: _3  and  _6
REMARK    4  A    between atoms: _6  and  _7
REMARK    5  A    between atoms: _7  and  _8
REMARK    6  A    between atoms: _8  and  _9
REMARK    7  A    between atoms: _18  and  _20
REMARK    8  A    between atoms: _20  and  _21
REMARK    9  A    between atoms: _20  and  _23
REMARK   10  A    between atoms: _23  and  _24
REMARK   11  A    between atoms: _27  and  _29
REMARK   12  A    between atoms: _29  and  _30
REMARK   13  A    between atoms: _29  and  _32
REMARK   14  A    between atoms: _32  and  _33
REMARK   15  A    between atoms: _36  and  _38
REMARK   16  A    between atoms: _38  and  _39
REMARK   17  A    between atoms: _38  and  _41
REMARK   18  A    between atoms: _41  and  _42
REMARK   19  A    between atoms: _45  and  _47
REMARK   20  A    between atoms: _47  and  _48
REMARK   21  A    between atoms: _47  and  _50
REMARK   22  A    between atoms: _50  and  _51
REMARK   23  A    between atoms: _54  and  _56
REMARK   24  A    between atoms: _56  and  _57
REMARK   25  A    between atoms: _59  and  _61
REMARK   26  A    between atoms: _61  and  _62
REMARK   27  A    between atoms: _65  and  _67
REMARK   28  A    between atoms: _67  and  _68
REMARK   29  A    between atoms: _67  and  _70
REMARK   30  A    between atoms: _70  and  _71
REMARK   31  A    between atoms: _74  and  _76
REMARK   32  A    between atoms: _76  and  _77
REMARK   33  A    between atoms: _76  and  _79
REMARK   34  A    between atoms: _79  and  _80
REMARK   35  A    between atoms: _83  and  _85
REMARK   36  A    between atoms: _85  and  _86
REMARK   37  A    between atoms: _85  and  _88
REMARK   38  A    between atoms: _88  and  _89
REMARK   39  A    between atoms: _92  and  _94
REMARK   40  A    between atoms: _94  and  _95
REMARK   41  A    between atoms: _94  and  _97
REMARK   42  A    between atoms: _100  and  _102
REMARK   43  A    between atoms: _102  and  _103
REMARK   44  A    between atoms: _102  and  _105
REMARK   45  A    between atoms: _105  and  _106
REMARK   46  A    between atoms: _109  and  _111
REMARK   47  A    between atoms: _111  and  _112
REMARK   48  A    between atoms: _114  and  _116
REMARK   49  A    between atoms: _116  and  _117
REMARK   50  A    between atoms: _119  and  _121
REMARK   51  A    between atoms: _121  and  _122
REMARK   52  A    between atoms: _121  and  _124
REMARK   53  A    between atoms: _124  and  _125
REMARK   54  A    between atoms: _128  and  _130
REMARK   55  A    between atoms: _130  and  _131
REMARK   56  A    between atoms: _133  and  _135
REMARK   57  A    between atoms: _135  and  _136
REMARK   58  A    between atoms: _138  and  _140
REMARK   59  A    between atoms: _140  and  _141
REMARK   60  A    between atoms: _140  and  _143
REMARK   61  A    between atoms: _143  and  _144
REMARK   62  A    between atoms: _147  and  _149
REMARK   63  A    between atoms: _149  and  _150
REMARK   64  A    between atoms: _149  and  _152
REMARK   65  A    between atoms: _152  and  _153
REMARK   66  A    between atoms: _157  and  _158
REMARK   67  A    between atoms: _163  and  _165
REMARK   68  A    between atoms: _165  and  _166
REMARK   69  A    between atoms: _165  and  _168
REMARK   70  A    between atoms: _168  and  _169
REMARK   71  A    between atoms: _173  and  _174
REMARK   72  A    between atoms: _179  and  _181
REMARK   73  A    between atoms: _181  and  _182
REMARK   74  A    between atoms: _181  and  _184
REMARK   75  A    between atoms: _184  and  _185
REMARK   76  A    between atoms: _191  and  _193
REMARK   77  A    between atoms: _193  and  _194
REMARK   78  A    between atoms: _193  and  _196
REMARK   79  A    between atoms: _196  and  _197
REMARK   80  A    between atoms: _202  and  _204
REMARK   81  A    between atoms: _204  and  _205
REMARK   82  A    between atoms: _204  and  _207
REMARK   83  A    between atoms: _207  and  _208
REMARK   84  A    between atoms: _211  and  _213
REMARK   85  A    between atoms: _213  and  _214
REMARK   86  A    between atoms: _213  and  _216
REMARK   87  A    between atoms: _216  and  _217
REMARK   88  A    between atoms: _220  and  _222
REMARK   89  A    between atoms: _222  and  _223
REMARK   90  A    between atoms: _225  and  _227
REMARK   91  A    between atoms: _227  and  _228
REMARK   92  A    between atoms: _227  and  _230
REMARK   93  A    between atoms: _230  and  _231
REMARK   94  A    between atoms: _231  and  _232
REMARK   95  A    between atoms: _232  and  _233
REMARK   96  A    between atoms: _242  and  _244
REMARK   97  A    between atoms: _244  and  _245
REMARK   98  A    between atoms: _244  and  _247
REMARK   99  A    between atoms: _247  and  _248
REMARK  100  A    between atoms: _253  and  _255
REMARK  101  A    between atoms: _255  and  _256
REMARK  102  A    between atoms: _255  and  _258
REMARK  103  A    between atoms: _258  and  _259
REMARK  104  A    between atoms: _259  and  _260
REMARK  105  A    between atoms: _260  and  _261
REMARK  106  A    between atoms: _270  and  _272
REMARK  107  A    between atoms: _272  and  _273
REMARK  108  A    between atoms: _272  and  _275
REMARK  109  A    between atoms: _275  and  _276
REMARK  110  A    between atoms: _279  and  _281
REMARK  111  A    between atoms: _281  and  _282
REMARK  112  A    between atoms: _281  and  _284
REMARK  113  A    between atoms: _284  and  _285
REMARK  114  A    between atoms: _288  and  _290
REMARK  115  A    between atoms: _290  and  _291
REMARK  116  A    between atoms: _290  and  _293
REMARK  117  A    between atoms: _293  and  _294
REMARK  118  A    between atoms: _297  and  _299
REMARK  119  A    between atoms: _299  and  _300
REMARK  120  A    between atoms: _299  and  _302
REMARK  121  A    between atoms: _302  and  _303
REMARK  122  A    between atoms: _306  and  _308
REMARK  123  A    between atoms: _308  and  _309
REMARK  124  A    between atoms: _311  and  _313
REMARK  125  A    between atoms: _313  and  _314
REMARK  126  A    between atoms: _317  and  _319
REMARK  127  A    between atoms: _319  and  _320
REMARK  128  A    between atoms: _319  and  _322
REMARK  129  A    between atoms: _322  and  _323
REMARK  130  A    between atoms: _326  and  _328
REMARK  131  A    between atoms: _328  and  _329
REMARK  132  A    between atoms: _328  and  _331
REMARK  133  A    between atoms: _331  and  _332
REMARK  134  A    between atoms: _335  and  _337
REMARK  135  A    between atoms: _337  and  _338
REMARK  136  A    between atoms: _337  and  _340
REMARK  137  A    between atoms: _340  and  _341
REMARK  138  A    between atoms: _344  and  _346
REMARK  139  A    between atoms: _346  and  _347
REMARK  140  A    between atoms: _346  and  _349
REMARK  141  A    between atoms: _352  and  _354
REMARK  142  A    between atoms: _354  and  _355
REMARK  143  A    between atoms: _354  and  _357
REMARK  144  A    between atoms: _357  and  _358
REMARK  145  A    between atoms: _358  and  _359
REMARK  146  A    between atoms: _359  and  _360
REMARK  147  A    between atoms: _360  and  _361
REMARK  148  A    between atoms: _365  and  _367
REMARK  149  A    between atoms: _367  and  _368
REMARK  150  A    between atoms: _367  and  _370
REMARK  151  A    between atoms: _370  and  _371
REMARK  152  A    between atoms: _374  and  _376
REMARK  153  A    between atoms: _376  and  _377
REMARK  154  A    between atoms: _379  and  _381
REMARK  155  A    between atoms: _381  and  _382
REMARK  156  A    between atoms: _384  and  _386
REMARK  157  A    between atoms: _386  and  _387
REMARK  158  A    between atoms: _386  and  _389
REMARK  159  A    between atoms: _389  and  _390
REMARK  160  A    between atoms: _393  and  _395
REMARK  161  A    between atoms: _395  and  _396
REMARK  162  A    between atoms: _398  and  _400
REMARK  163  A    between atoms: _400  and  _401
REMARK  164  A    between atoms: _403  and  _405
REMARK  165  A    between atoms: _405  and  _406
REMARK  166  A    between atoms: _405  and  _408
REMARK  167  A    between atoms: _408  and  _409
REMARK  168  A    between atoms: _412  and  _414
REMARK  169  A    between atoms: _414  and  _415
REMARK  170  A    between atoms: _414  and  _417
REMARK  171  A    between atoms: _420  and  _422
REMARK  172  A    between atoms: _422  and  _423
REMARK  173  A    between atoms: _422  and  _425
REMARK  174  A    between atoms: _425  and  _426
REMARK  175  A    between atoms: _430  and  _431
REMARK  176  A    between atoms: _436  and  _438
REMARK  177  A    between atoms: _438  and  _439
REMARK  178  A    between atoms: _438  and  _441
REMARK  179  A    between atoms: _441  and  _442
REMARK  180  A    between atoms: _446  and  _447
REMARK  181  A    between atoms: _452  and  _454
REMARK  182  A    between atoms: _454  and  _455
REMARK  183  A    between atoms: _454  and  _457
REMARK  184  A    between atoms: _457  and  _458
REMARK  185  A    between atoms: _464  and  _466
REMARK  186  A    between atoms: _466  and  _467
REMARK  187  A    between atoms: _466  and  _469
REMARK  188  A    between atoms: _469  and  _470
REMARK  189  A    between atoms: _475  and  _477
REMARK  190  A    between atoms: _477  and  _478
REMARK  191  A    between atoms: _477  and  _480
REMARK  192  A    between atoms: _480  and  _481
REMARK  193  A    between atoms: _484  and  _486
REMARK  194  A    between atoms: _486  and  _487
REMARK  195  A    between atoms: _486  and  _489
REMARK  196  A    between atoms: _489  and  _490
REMARK  197  A    between atoms: _493  and  _495
REMARK  198  A    between atoms: _495  and  _496
REMARK  199  A    between atoms: _498  and  _500
REMARK  200  A    between atoms: _500  and  _501
REMARK  201  A    between atoms: _500  and  _503
REMARK  202  A    between atoms: _503  and  _504
REMARK  203  A    between atoms: _504  and  _505
REMARK  204  A    between atoms: _505  and  _506
REMARK  205  A    between atoms: _515  and  _517
REMARK  206  A    between atoms: _517  and  _518
REMARK  207  A    between atoms: _517  and  _520
REMARK  208  A    between atoms: _520  and  _521
REMARK                            x       y       z     vdW  Elec       q    Type
REMARK                         _______ _______ _______ _____ _____    ______ ____
ROOT
ATOM      1  CA  ILE A   6      -5.871  22.712  32.856  0.00  0.00    +0.149 C 
ENDROOT
BRANCH   1   2
ATOM      2  C   ILE A   6      -6.599  23.310  34.031  0.00  0.00    +0.241 C 
ATOM      3  O   ILE A   6      -6.496  22.787  35.132  0.00  0.00    -0.273 OA
ATOM      4  N   ILE A   7      -7.325  24.393  33.800  0.00  0.00    -0.297 N 
ATOM      5  H   ILE A   7      -7.261  24.882  32.885  0.00  0.00    +0.150 HD
BRANCH   4   6
ATOM      6  CA  ILE A   7      -8.218  24.895  34.843  0.00  0.00    +0.149 C 
BRANCH   6   7
ATOM      7  C   ILE A   7      -9.631  24.411  34.533  0.00  0.00    +0.241 C 
ATOM      8  N   GLY A   8     -10.194  23.614  35.434  0.00  0.00    -0.295 N 
ATOM      9  H   GLY A   8      -9.717  23.435  36.341  0.00  0.00    +0.150 HD
ATOM     10  O   ILE A   7     -10.169  24.722  33.487  0.00  0.00    -0.273 OA
BRANCH   8  11
ATOM     11  CA  GLY A   8     -11.473  22.995  35.152  0.00  0.00    +0.176 C 
BRANCH  11  12
ATOM     12  C   GLY A   8     -12.550  23.655  35.945  0.00  0.00    +0.243 C 
ATOM     13  O   GLY A   8     -12.345  24.693  36.558  0.00  0.00    -0.273 OA
ATOM     14  N   ARG A   9     -13.732  23.070  35.935  0.00  0.00    -0.297 N 
ATOM     15  H   ARG A   9     -13.838  22.113  35.542  0.00  0.00    +0.150 HD
BRANCH  14  16
ATOM     16  CA  ARG A   9     -14.897  23.775  36.481  0.00  0.00    +0.149 C 
BRANCH  16  17
ATOM     17  C   ARG A   9     -14.900  24.070  37.974  0.00  0.00    +0.241 C 
ATOM     18  N   ASN A  10     -14.229  23.232  38.755  0.00  0.00    -0.298 N 
ATOM     19  H   ASN A  10     -13.859  22.331  38.391  0.00  0.00    +0.150 HD
ATOM     20  O   ARG A   9     -15.434  25.082  38.401  0.00  0.00    -0.273 OA
BRANCH  18  21
ATOM     21  CA  ASN A  10     -14.032  23.629  40.151  0.00  0.00    +0.146 C 
BRANCH  21  22
ATOM     22  C   ASN A  10     -13.470  25.024  40.389  0.00  0.00    +0.227 C 
ATOM     23  O   ASN A  10     -13.873  25.692  41.313  0.00  0.00    -0.286 OA
ENDBRANCH  21  22
BRANCH  21  24
ATOM     24  CB  ASN A  10     -13.214  22.575  40.926  0.00  0.00    +0.112 C 
BRANCH  24  25
ATOM     25  CG  ASN A  10     -11.755  22.644  40.585  0.00  0.00    +0.222 C 
ATOM     26  ND2 ASN A  10     -10.955  22.611  41.637  0.00  0.00    -0.329 N 
ATOM     27 HD21 ASN A  10     -11.356  22.521  42.592  0.00  0.00    +0.145 HD
ATOM     28 HD22 ASN A  10      -9.925  22.675  41.509  0.00  0.00    +0.145 HD
ATOM     29  OD1 ASN A  10     -11.353  22.748  39.438  0.00  0.00    -0.275 OA
ENDBRANCH  24  25
ENDBRANCH  21  24
ENDBRANCH  18  21
ENDBRANCH  16  17
BRANCH  16  30
ATOM     30  CB  ARG A   9     -16.204  23.088  36.136  0.00  0.00    +0.033 C 
BRANCH  30  31
ATOM     31  CG  ARG A   9     -16.474  22.900  34.642  0.00  0.00    +0.045 C 
BRANCH  31  32
ATOM     32  CD  ARG A   9     -17.828  22.191  34.446  0.00  0.00    +0.174 C 
BRANCH  32  33
ATOM     33  NE  ARG A   9     -17.821  20.814  34.962  0.00  0.00    -0.265 N 
ATOM     34  CZ  ARG A   9     -18.476  20.467  36.081  0.00  0.00    +0.342 C 
ATOM     35  NH2 ARG A   9     -19.168  21.363  36.773  0.00  0.00    -0.292 N 
ATOM     36 HH21 ARG A   9     -19.670  21.077  37.638  0.00  0.00    +0.255 HD
ATOM     37 HH22 ARG A   9     -19.209  22.351  36.450  0.00  0.00    +0.255 HD
ATOM     38  NH1 ARG A   9     -18.424  19.212  36.523  0.00  0.00    -0.292 N 
ATOM     39 HH11 ARG A   9     -18.932  18.945  37.390  0.00  0.00    +0.255 HD
ATOM     40 HH12 ARG A   9     -17.875  18.499  36.001  0.00  0.00    +0.255 HD
ATOM     41  HE  ARG A   9     -17.291  20.085  34.443  0.00  0.00    +0.259 HD
ENDBRANCH  32  33
ENDBRANCH  31  32
ENDBRANCH  30  31
ENDBRANCH  16  30
ENDBRANCH  14  16
ENDBRANCH  11  12
ENDBRANCH   8  11
ENDBRANCH   6   7
BRANCH   6  42
ATOM     42  CB  ILE A   7      -8.191  26.426  34.798  0.00  0.00    +0.027 C 
ATOM     43  CG2 ILE A   7      -8.999  27.038  35.946  0.00  0.00    +0.002 C 
BRANCH  42  44
ATOM     44  CG1 ILE A   7      -6.799  27.042  34.758  0.00  0.00    +0.002 C 
ATOM     45  CD1 ILE A   7      -5.933  26.628  35.953  0.00  0.00    +0.000 C 
ENDBRANCH  42  44
ENDBRANCH   6  42
ENDBRANCH   4   6
ENDBRANCH   1   2
BRANCH   1  47
ATOM     46  C   ASN A   5      -3.471  23.190  32.549  0.00  0.00    +0.241 C 
ATOM     47  N   ILE A   6      -4.459  22.624  33.253  0.00  0.00    -0.297 N 
ATOM     48  H   ILE A   6      -4.217  22.100  34.118  0.00  0.00    +0.150 HD
ATOM     49  O   ASN A   5      -3.659  23.906  31.578  0.00  0.00    -0.273 OA
BRANCH  46  50
ATOM     50  CA  ASN A   5      -2.045  22.904  32.953  0.00  0.00    +0.158 C 
BRANCH  50  53
ATOM     51  C   PHE A   4      -1.473  21.387  31.188  0.00  0.00    +0.241 C 
ATOM     52  O   PHE A   4      -2.078  20.491  31.753  0.00  0.00    -0.273 OA
ATOM     53  N   ASN A   5      -1.347  22.595  31.694  0.00  0.00    -0.297 N 
ATOM     54  H   ASN A   5      -0.768  23.315  31.216  0.00  0.00    +0.150 HD
BRANCH  51  55
ATOM     55  CA  PHE A   4      -0.831  21.202  29.839  0.00  0.00    +0.153 C 
BRANCH  55  57
ATOM     56  C   PRO A   3       0.610  19.357  29.043  0.00  0.00    +0.241 C 
ATOM     57  N   PHE A   4      -0.502  19.783  29.665  0.00  0.00    -0.297 N 
ATOM     58  H   PHE A   4      -1.162  19.072  30.041  0.00  0.00    +0.150 HD
ATOM     59  O   PRO A   3       1.452  20.115  28.578  0.00  0.00    -0.273 OA
BRANCH  56  66
ATOM     60  C   THR A   2       0.375  16.952  31.107  0.00  0.00    +0.246 C 
ATOM     61  O   THR A   2       1.407  17.444  31.540  0.00  0.00    -0.273 OA
ATOM     62  N   PRO A   3      -0.002  17.014  29.818  0.00  0.00    -0.272 N 
ATOM     63  CD  PRO A   3      -1.113  16.325  29.170  0.00  0.00    +0.094 C 
ATOM     64  CG  PRO A   3      -0.645  16.152  27.740  0.00  0.00    +0.024 C 
ATOM     65  CB  PRO A   3       0.135  17.435  27.515  0.00  0.00    +0.031 C 
ATOM     66  CA  PRO A   3       0.746  17.840  28.866  0.00  0.00    +0.152 C 
BRANCH  60  67
ATOM     67  CA  THR A   2      -0.561  16.240  32.074  0.00  0.00    +0.176 C 
BRANCH  67  69
ATOM     68  C   PRO A   1       0.633  14.483  33.187  0.00  0.00    +0.239 C 
ATOM     69  N   THR A   2       0.250  15.740  33.162  0.00  0.00    -0.295 N 
ATOM     70  H   THR A   2       0.533  16.380  33.931  0.00  0.00    +0.150 HD
ATOM     71  O   PRO A   1       0.194  13.627  32.434  0.00  0.00    -0.274 OA
BRANCH  68  76
ATOM     72  N   PRO A   1       1.148  14.155  35.596  0.00  0.00    -0.210 NA
ATOM     73  CD  PRO A   1       0.868  12.801  36.077  0.00  0.00    +0.089 C 
ATOM     74  CG  PRO A   1       1.276  11.874  34.936  0.00  0.00    +0.021 C 
ATOM     75  CB  PRO A   1       2.248  12.746  34.137  0.00  0.00    +0.028 C 
ATOM     76  CA  PRO A   1       1.696  14.182  34.236  0.00  0.00    +0.149 C 
ENDBRANCH  68  76
ENDBRANCH  67  69
BRANCH  67  77
ATOM     77  CB  THR A   2      -1.571  17.203  32.723  0.00  0.00    +0.137 C 
ATOM     78  CG2 THR A   2      -0.920  18.301  33.549  0.00  0.00    +0.034 C 
BRANCH  77  79
ATOM     79  OG1 THR A   2      -2.431  17.747  31.725  0.00  0.00    -0.382 OA
ATOM     80  HG1 THR A   2      -1.890  18.240  31.058  0.00  0.00    +0.210 HD
ENDBRANCH  77  79
ENDBRANCH  67  77
ENDBRANCH  60  67
ENDBRANCH  56  66
ENDBRANCH  55  57
BRANCH  55  81
ATOM     81  CB  PHE A   4      -1.923  21.662  28.857  0.00  0.00    +0.055 C 
BRANCH  81  82
ATOM     82  CG  PHE A   4      -1.478  21.573  27.431  0.00  0.00    -0.020 A 
ATOM     83  CD2 PHE A   4      -0.285  22.210  27.003  0.00  0.00    -0.004 A 
ATOM     84  CE2 PHE A   4       0.129  22.093  25.653  0.00  0.00    -0.000 A 
ATOM     85  CZ  PHE A   4      -0.662  21.350  24.742  0.00  0.00    -0.000 A 
ATOM     86  CE1 PHE A   4      -1.854  20.723  25.175  0.00  0.00    -0.000 A 
ATOM     87  CD1 PHE A   4      -2.265  20.839  26.522  0.00  0.00    -0.004 A 
ENDBRANCH  81  82
ENDBRANCH  55  81
ENDBRANCH  51  55
ENDBRANCH  50  53
BRANCH  50  88
ATOM     88  CB  ASN A   5      -1.461  24.182  33.605  0.00  0.00    +0.114 C 
BRANCH  88  89
ATOM     89  CG  ASN A   5      -0.010  24.047  34.005  0.00  0.00    +0.222 C 
ATOM     90  OD1 ASN A   5       0.370  23.206  34.797  0.00  0.00    -0.275 OA
ATOM     91  ND2 ASN A   5       0.834  24.896  33.430  0.00  0.00    -0.329 N 
ATOM     92 HD21 ASN A   5       1.849  24.852  33.653  0.00  0.00    +0.145 HD
ATOM     93 HD22 ASN A   5       0.480  25.605  32.756  0.00  0.00    +0.145 HD
ENDBRANCH  88  89
ENDBRANCH  50  88
ENDBRANCH  46  50
ENDBRANCH   1  47
BRANCH   1  94
ATOM     94  CB  ILE A   6      -6.434  21.277  32.659  0.00  0.00    +0.027 C 
ATOM     95  CG2 ILE A   6      -7.927  21.260  32.338  0.00  0.00    +0.002 C 
BRANCH  94  96
ATOM     96  CG1 ILE A   6      -5.713  20.308  31.711  0.00  0.00    +0.002 C 
ATOM     97  CD1 ILE A   6      -5.703  20.637  30.214  0.00  0.00    +0.000 C 
ENDBRANCH  94  96
ENDBRANCH   1  94
TORSDOF 34
REMARK  Name = ../refined-set-2016/1met/1met_pocket.pdb
REMARK  208 active torsions:
REMARK  status: ('A' for Active; 'I' for Inactive)
REMARK    1  A    between atoms: _1  and  _3
REMARK    2  A    between atoms: _3  and  _4
REMARK    3  A    between atoms: _3  and  _6
REMARK    4  A    between atoms: _6  and  _7
REMARK    5  A    between atoms: _7  and  _8
REMARK    6  A    between atoms: _8  and  _9
REMARK    7  A    between atoms: _18  and  _20
REMARK    8  A    between atoms: _20  and  _21
REMARK    9  A    between atoms: _20  and  _23
REMARK   10  A    between atoms: _23  and  _24
REMARK   11  A    between atoms: _27  and  _29
REMARK   12  A    between atoms: _29  and  _30
REMARK   13  A    between atoms: _29  and  _32
REMARK   14  A    between atoms: _32  and  _33
REMARK   15  A    between atoms: _36  and  _38
REMARK   16  A    between atoms: _38  and  _39
REMARK   17  A    between atoms: _38  and  _41
REMARK   18  A    between atoms: _41  and  _42
REMARK   19  A    between atoms: _45  and  _47
REMARK   20  A    between atoms: _47  and  _48
REMARK   21  A    between atoms: _47  and  _50
REMARK   22  A    between atoms: _50  and  _51
REMARK   23  A    between atoms: _54  and  _56
REMARK   24  A    between atoms: _56  and  _57
REMARK   25  A    between atoms: _59  and  _61
REMARK   26  A    between atoms: _61  and  _62
REMARK   27  A    between atoms: _65  and  _67
REMARK   28  A    between atoms: _67  and  _68
REMARK   29  A    between atoms: _67  and  _70
REMARK   30  A    between atoms: _70  and  _71
REMARK   31  A    between atoms: _74  and  _76
REMARK   32  A    between atoms: _76  and  _77
REMARK   33  A    between atoms: _76  and  _79
REMARK   34  A    between atoms: _79  and  _80
REMARK   35  A    between atoms: _83  and  _85
REMARK   36  A    between atoms: _85  and  _86
REMARK   37  A    between atoms: _85  and  _88
REMARK   38  A    between atoms: _88  and  _89
REMARK   39  A    between atoms: _92  and  _94
REMARK   40  A    between atoms: _94  and  _95
REMARK   41  A    between atoms: _94  and  _97
REMARK   42  A    between atoms: _100  and  _102
REMARK   43  A    between atoms: _102  and  _103
REMARK   44  A    between atoms: _102  and  _105
REMARK   45  A    between atoms: _105  and  _106
REMARK   46  A    between atoms: _109  and  _111
REMARK   47  A    between atoms: _111  and  _112
REMARK   48  A    between atoms: _114  and  _116
REMARK   49  A    between atoms: _116  and  _117
REMARK   50  A    between atoms: _119  and  _121
REMARK   51  A    between atoms: _121  and  _122
REMARK   52  A    between atoms: _121  and  _124
REMARK   53  A    between atoms: _124  and  _125
REMARK   54  A    between atoms: _128  and  _130
REMARK   55  A    between atoms: _130  and  _131
REMARK   56  A    between atoms: _133  and  _135
REMARK   57  A    between atoms: _135  and  _136
REMARK   58  A    between atoms: _138  and  _140
REMARK   59  A    between atoms: _140  and  _141
REMARK   60  A    between atoms: _140  and  _143
REMARK   61  A    between atoms: _143  and  _144
REMARK   62  A    between atoms: _147  and  _149
REMARK   63  A    between atoms: _149  and  _150
REMARK   64  A    between atoms: _149  and  _152
REMARK   65  A    between atoms: _152  and  _153
REMARK   66  A    between atoms: _157  and  _158
REMARK   67  A    between atoms: _163  and  _165
REMARK   68  A    between atoms: _165  and  _166
REMARK   69  A    between atoms: _165  and  _168
REMARK   70  A    between atoms: _168  and  _169
REMARK   71  A    between atoms: _173  and  _174
REMARK   72  A    between atoms: _179  and  _181
REMARK   73  A    between atoms: _181  and  _182
REMARK   74  A    between atoms: _181  and  _184
REMARK   75  A    between atoms: _184  and  _185
REMARK   76  A    between atoms: _191  and  _193
REMARK   77  A    between atoms: _193  and  _194
REMARK   78  A    between atoms: _193  and  _196
REMARK   79  A    between atoms: _196  and  _197
REMARK   80  A    between atoms: _202  and  _204
REMARK   81  A    between atoms: _204  and  _205
REMARK   82  A    between atoms: _204  and  _207
REMARK   83  A    between atoms: _207  and  _208
REMARK   84  A    between atoms: _211  and  _213
REMARK   85  A    between atoms: _213  and  _214
REMARK   86  A    between atoms: _213  and  _216
REMARK   87  A    between atoms: _216  and  _217
REMARK   88  A    between atoms: _220  and  _222
REMARK   89  A    between atoms: _222  and  _223
REMARK   90  A    between atoms: _225  and  _227
REMARK   91  A    between atoms: _227  and  _228
REMARK   92  A    between atoms: _227  and  _230
REMARK   93  A    between atoms: _230  and  _231
REMARK   94  A    between atoms: _231  and  _232
REMARK   95  A    between atoms: _232  and  _233
REMARK   96  A    between atoms: _242  and  _244
REMARK   97  A    between atoms: _244  and  _245
REMARK   98  A    between atoms: _244  and  _247
REMARK   99  A    between atoms: _247  and  _248
REMARK  100  A    between atoms: _253  and  _255
REMARK  101  A    between atoms: _255  and  _256
REMARK  102  A    between atoms: _255  and  _258
REMARK  103  A    between atoms: _258  and  _259
REMARK  104  A    between atoms: _259  and  _260
REMARK  105  A    between atoms: _260  and  _261
REMARK  106  A    between atoms: _270  and  _272
REMARK  107  A    between atoms: _272  and  _273
REMARK  108  A    between atoms: _272  and  _275
REMARK  109  A    between atoms: _275  and  _276
REMARK  110  A    between atoms: _279  and  _281
REMARK  111  A    between atoms: _281  and  _282
REMARK  112  A    between atoms: _281  and  _284
REMARK  113  A    between atoms: _284  and  _285
REMARK  114  A    between atoms: _288  and  _290
REMARK  115  A    between atoms: _290  and  _291
REMARK  116  A    between atoms: _290  and  _293
REMARK  117  A    between atoms: _293  and  _294
REMARK  118  A    between atoms: _297  and  _299
REMARK  119  A    between atoms: _299  and  _300
REMARK  120  A    between atoms: _299  and  _302
REMARK  121  A    between atoms: _302  and  _303
REMARK  122  A    between atoms: _306  and  _308
REMARK  123  A    between atoms: _308  and  _309
REMARK  124  A    between atoms: _311  and  _313
REMARK  125  A    between atoms: _313  and  _314
REMARK  126  A    between atoms: _317  and  _319
REMARK  127  A    between atoms: _319  and  _320
REMARK  128  A    between atoms: _319  and  _322
REMARK  129  A    between atoms: _322  and  _323
REMARK  130  A    between atoms: _326  and  _328
REMARK  131  A    between atoms: _328  and  _329
REMARK  132  A    between atoms: _328  and  _331
REMARK  133  A    between atoms: _331  and  _332
REMARK  134  A    between atoms: _335  and  _337
REMARK  135  A    between atoms: _337  and  _338
REMARK  136  A    between atoms: _337  and  _340
REMARK  137  A    between atoms: _340  and  _341
REMARK  138  A    between atoms: _344  and  _346
REMARK  139  A    between atoms: _346  and  _347
REMARK  140  A    between atoms: _346  and  _349
REMARK  141  A    between atoms: _352  and  _354
REMARK  142  A    between atoms: _354  and  _355
REMARK  143  A    between atoms: _354  and  _357
REMARK  144  A    between atoms: _357  and  _358
REMARK  145  A    between atoms: _358  and  _359
REMARK  146  A    between atoms: _359  and  _360
REMARK  147  A    between atoms: _360  and  _361
REMARK  148  A    between atoms: _365  and  _367
REMARK  149  A    between atoms: _367  and  _368
REMARK  150  A    between atoms: _367  and  _370
REMARK  151  A    between atoms: _370  and  _371
REMARK  152  A    between atoms: _374  and  _376
REMARK  153  A    between atoms: _376  and  _377
REMARK  154  A    between atoms: _379  and  _381
REMARK  155  A    between atoms: _381  and  _382
REMARK  156  A    between atoms: _384  and  _386
REMARK  157  A    between atoms: _386  and  _387
REMARK  158  A    between atoms: _386  and  _389
REMARK  159  A    between atoms: _389  and  _390
REMARK  160  A    between atoms: _393  and  _395
REMARK  161  A    between atoms: _395  and  _396
REMARK  162  A    between atoms: _398  and  _400
REMARK  163  A    between atoms: _400  and  _401
REMARK  164  A    between atoms: _403  and  _405
REMARK  165  A    between atoms: _405  and  _406
REMARK  166  A    between atoms: _405  and  _408
REMARK  167  A    between atoms: _408  and  _409
REMARK  168  A    between atoms: _412  and  _414
REMARK  169  A    between atoms: _414  and  _415
REMARK  170  A    between atoms: _414  and  _417
REMARK  171  A    between atoms: _420  and  _422
REMARK  172  A    between atoms: _422  and  _423
REMARK  173  A    between atoms: _422  and  _425
REMARK  174  A    between atoms: _425  and  _426
REMARK  175  A    between atoms: _430  and  _431
REMARK  176  A    between atoms: _436  and  _438
REMARK  177  A    between atoms: _438  and  _439
REMARK  178  A    between atoms: _438  and  _441
REMARK  179  A    between atoms: _441  and  _442
REMARK  180  A    between atoms: _446  and  _447
REMARK  181  A    between atoms: _452  and  _454
REMARK  182  A    between atoms: _454  and  _455
REMARK  183  A    between atoms: _454  and  _457
REMARK  184  A    between atoms: _457  and  _458
REMARK  185  A    between atoms: _464  and  _466
REMARK  186  A    between atoms: _466  and  _467
REMARK  187  A    between atoms: _466  and  _469
REMARK  188  A    between atoms: _469  and  _470
REMARK  189  A    between atoms: _475  and  _477
REMARK  190  A    between atoms: _477  and  _478
REMARK  191  A    between atoms: _477  and  _480
REMARK  192  A    between atoms: _480  and  _481
REMARK  193  A    between atoms: _484  and  _486
REMARK  194  A    between atoms: _486  and  _487
REMARK  195  A    between atoms: _486  and  _489
REMARK  196  A    between atoms: _489  and  _490
REMARK  197  A    between atoms: _493  and  _495
REMARK  198  A    between atoms: _495  and  _496
REMARK  199  A    between atoms: _498  and  _500
REMARK  200  A    between atoms: _500  and  _501
REMARK  201  A    between atoms: _500  and  _503
REMARK  202  A    between atoms: _503  and  _504
REMARK  203  A    between atoms: _504  and  _505
REMARK  204  A    between atoms: _505  and  _506
REMARK  205  A    between atoms: _515  and  _517
REMARK  206  A    between atoms: _517  and  _518
REMARK  207  A    between atoms: _517  and  _520
REMARK  208  A    between atoms: _520  and  _521
REMARK                            x       y       z     vdW  Elec       q    Type
REMARK                         _______ _______ _______ _____ _____    ______ ____
ROOT
ATOM      1  NE  ARG A   1     -18.955  16.047  32.912  0.00  0.00    -0.265 N 
ATOM      2  CZ  ARG A   1     -18.436  14.832  33.073  0.00  0.00    +0.342 C 
ATOM      3  NH2 ARG A   1     -18.655  14.112  34.183  0.00  0.00    -0.292 N 
ATOM      4 HH21 ARG A   1     -19.244  14.500  34.947  0.00  0.00    +0.255 HD
ATOM      5 HH22 ARG A   1     -18.236  13.165  34.280  0.00  0.00    +0.255 HD
ATOM      6  NH1 ARG A   1     -17.681  14.321  32.107  0.00  0.00    -0.292 N 
ATOM      7 HH11 ARG A   1     -17.268  13.373  32.217  0.00  0.00    +0.255 HD
ATOM      8 HH12 ARG A   1     -17.503  14.869  31.241  0.00  0.00    +0.255 HD
ATOM      9  HE  ARG A   1     -18.777  16.610  32.056  0.00  0.00    +0.259 HD
ENDROOT
BRANCH   1  10
ATOM     10  CD  ARG A   1     -19.783  16.545  33.995  0.00  0.00    +0.174 C 
BRANCH  10  11
ATOM     11  CG  ARG A   1     -20.032  18.026  33.864  0.00  0.00    +0.045 C 
BRANCH  11  12
ATOM     12  CB  ARG A   1     -21.032  18.437  32.805  0.00  0.00    +0.029 C 
BRANCH  12  13
ATOM     13  CA  ARG A   1     -21.245  19.926  33.042  0.00  0.00    +0.133 C 
BRANCH  13  14
ATOM     14  N   ARG A   1     -21.818  20.082  34.377  0.00  0.00    -0.239 NA
ATOM     15  H   ARG A   1     -22.059  19.250  34.952  0.00  0.00    +0.142 HD
ENDBRANCH  13  14
BRANCH  13  16
ATOM     16  C   ARG A   1     -22.053  20.564  31.927  0.00  0.00    +0.224 C 
ATOM     17  O   ARG A   1     -23.271  20.471  31.882  0.00  0.00    -0.287 OA
ENDBRANCH  13  16
ENDBRANCH  12  13
ENDBRANCH  11  12
ENDBRANCH  10  11
ENDBRANCH   1  10
TORSDOF 6
REMARK  Name = ../refined-set-2016/1met/1met_pocket.pdb
REMARK  208 active torsions:
REMARK  status: ('A' for Active; 'I' for Inactive)
REMARK    1  A    between atoms: _1  and  _3
REMARK    2  A    between atoms: _3  and  _4
REMARK    3  A    between atoms: _3  and  _6
REMARK    4  A    between atoms: _6  and  _7
REMARK    5  A    between atoms: _7  and  _8
REMARK    6  A    between atoms: _8  and  _9
REMARK    7  A    between atoms: _18  and  _20
REMARK    8  A    between atoms: _20  and  _21
REMARK    9  A    between atoms: _20  and  _23
REMARK   10  A    between atoms: _23  and  _24
REMARK   11  A    between atoms: _27  and  _29
REMARK   12  A    between atoms: _29  and  _30
REMARK   13  A    between atoms: _29  and  _32
REMARK   14  A    between atoms: _32  and  _33
REMARK   15  A    between atoms: _36  and  _38
REMARK   16  A    between atoms: _38  and  _39
REMARK   17  A    between atoms: _38  and  _41
REMARK   18  A    between atoms: _41  and  _42
REMARK   19  A    between atoms: _45  and  _47
REMARK   20  A    between atoms: _47  and  _48
REMARK   21  A    between atoms: _47  and  _50
REMARK   22  A    between atoms: _50  and  _51
REMARK   23  A    between atoms: _54  and  _56
REMARK   24  A    between atoms: _56  and  _57
REMARK   25  A    between atoms: _59  and  _61
REMARK   26  A    between atoms: _61  and  _62
REMARK   27  A    between atoms: _65  and  _67
REMARK   28  A    between atoms: _67  and  _68
REMARK   29  A    between atoms: _67  and  _70
REMARK   30  A    between atoms: _70  and  _71
REMARK   31  A    between atoms: _74  and  _76
REMARK   32  A    between atoms: _76  and  _77
REMARK   33  A    between atoms: _76  and  _79
REMARK   34  A    between atoms: _79  and  _80
REMARK   35  A    between atoms: _83  and  _85
REMARK   36  A    between atoms: _85  and  _86
REMARK   37  A    between atoms: _85  and  _88
REMARK   38  A    between atoms: _88  and  _89
REMARK   39  A    between atoms: _92  and  _94
REMARK   40  A    between atoms: _94  and  _95
REMARK   41  A    between atoms: _94  and  _97
REMARK   42  A    between atoms: _100  and  _102
REMARK   43  A    between atoms: _102  and  _103
REMARK   44  A    between atoms: _102  and  _105
REMARK   45  A    between atoms: _105  and  _106
REMARK   46  A    between atoms: _109  and  _111
REMARK   47  A    between atoms: _111  and  _112
REMARK   48  A    between atoms: _114  and  _116
REMARK   49  A    between atoms: _116  and  _117
REMARK   50  A    between atoms: _119  and  _121
REMARK   51  A    between atoms: _121  and  _122
REMARK   52  A    between atoms: _121  and  _124
REMARK   53  A    between atoms: _124  and  _125
REMARK   54  A    between atoms: _128  and  _130
REMARK   55  A    between atoms: _130  and  _131
REMARK   56  A    between atoms: _133  and  _135
REMARK   57  A    between atoms: _135  and  _136
REMARK   58  A    between atoms: _138  and  _140
REMARK   59  A    between atoms: _140  and  _141
REMARK   60  A    between atoms: _140  and  _143
REMARK   61  A    between atoms: _143  and  _144
REMARK   62  A    between atoms: _147  and  _149
REMARK   63  A    between atoms: _149  and  _150
REMARK   64  A    between atoms: _149  and  _152
REMARK   65  A    between atoms: _152  and  _153
REMARK   66  A    between atoms: _157  and  _158
REMARK   67  A    between atoms: _163  and  _165
REMARK   68  A    between atoms: _165  and  _166
REMARK   69  A    between atoms: _165  and  _168
REMARK   70  A    between atoms: _168  and  _169
REMARK   71  A    between atoms: _173  and  _174
REMARK   72  A    between atoms: _179  and  _181
REMARK   73  A    between atoms: _181  and  _182
REMARK   74  A    between atoms: _181  and  _184
REMARK   75  A    between atoms: _184  and  _185
REMARK   76  A    between atoms: _191  and  _193
REMARK   77  A    between atoms: _193  and  _194
REMARK   78  A    between atoms: _193  and  _196
REMARK   79  A    between atoms: _196  and  _197
REMARK   80  A    between atoms: _202  and  _204
REMARK   81  A    between atoms: _204  and  _205
REMARK   82  A    between atoms: _204  and  _207
REMARK   83  A    between atoms: _207  and  _208
REMARK   84  A    between atoms: _211  and  _213
REMARK   85  A    between atoms: _213  and  _214
REMARK   86  A    between atoms: _213  and  _216
REMARK   87  A    between atoms: _216  and  _217
REMARK   88  A    between atoms: _220  and  _222
REMARK   89  A    between atoms: _222  and  _223
REMARK   90  A    between atoms: _225  and  _227
REMARK   91  A    between atoms: _227  and  _228
REMARK   92  A    between atoms: _227  and  _230
REMARK   93  A    between atoms: _230  and  _231
REMARK   94  A    between atoms: _231  and  _232
REMARK   95  A    between atoms: _232  and  _233
REMARK   96  A    between atoms: _242  and  _244
REMARK   97  A    between atoms: _244  and  _245
REMARK   98  A    between atoms: _244  and  _247
REMARK   99  A    between atoms: _247  and  _248
REMARK  100  A    between atoms: _253  and  _255
REMARK  101  A    between atoms: _255  and  _256
REMARK  102  A    between atoms: _255  and  _258
REMARK  103  A    between atoms: _258  and  _259
REMARK  104  A    between atoms: _259  and  _260
REMARK  105  A    between atoms: _260  and  _261
REMARK  106  A    between atoms: _270  and  _272
REMARK  107  A    between atoms: _272  and  _273
REMARK  108  A    between atoms: _272  and  _275
REMARK  109  A    between atoms: _275  and  _276
REMARK  110  A    between atoms: _279  and  _281
REMARK  111  A    between atoms: _281  and  _282
REMARK  112  A    between atoms: _281  and  _284
REMARK  113  A    between atoms: _284  and  _285
REMARK  114  A    between atoms: _288  and  _290
REMARK  115  A    between atoms: _290  and  _291
REMARK  116  A    between atoms: _290  and  _293
REMARK  117  A    between atoms: _293  and  _294
REMARK  118  A    between atoms: _297  and  _299
REMARK  119  A    between atoms: _299  and  _300
REMARK  120  A    between atoms: _299  and  _302
REMARK  121  A    between atoms: _302  and  _303
REMARK  122  A    between atoms: _306  and  _308
REMARK  123  A    between atoms: _308  and  _309
REMARK  124  A    between atoms: _311  and  _313
REMARK  125  A    between atoms: _313  and  _314
REMARK  126  A    between atoms: _317  and  _319
REMARK  127  A    between atoms: _319  and  _320
REMARK  128  A    between atoms: _319  and  _322
REMARK  129  A    between atoms: _322  and  _323
REMARK  130  A    between atoms: _326  and  _328
REMARK  131  A    between atoms: _328  and  _329
REMARK  132  A    between atoms: _328  and  _331
REMARK  133  A    between atoms: _331  and  _332
REMARK  134  A    between atoms: _335  and  _337
REMARK  135  A    between atoms: _337  and  _338
REMARK  136  A    between atoms: _337  and  _340
REMARK  137  A    between atoms: _340  and  _341
REMARK  138  A    between atoms: _344  and  _346
REMARK  139  A    between atoms: _346  and  _347
REMARK  140  A    between atoms: _346  and  _349
REMARK  141  A    between atoms: _352  and  _354
REMARK  142  A    between atoms: _354  and  _355
REMARK  143  A    between atoms: _354  and  _357
REMARK  144  A    between atoms: _357  and  _358
REMARK  145  A    between atoms: _358  and  _359
REMARK  146  A    between atoms: _359  and  _360
REMARK  147  A    between atoms: _360  and  _361
REMARK  148  A    between atoms: _365  and  _367
REMARK  149  A    between atoms: _367  and  _368
REMARK  150  A    between atoms: _367  and  _370
REMARK  151  A    between atoms: _370  and  _371
REMARK  152  A    between atoms: _374  and  _376
REMARK  153  A    between atoms: _376  and  _377
REMARK  154  A    between atoms: _379  and  _381
REMARK  155  A    between atoms: _381  and  _382
REMARK  156  A    between atoms: _384  and  _386
REMARK  157  A    between atoms: _386  and  _387
REMARK  158  A    between atoms: _386  and  _389
REMARK  159  A    between atoms: _389  and  _390
REMARK  160  A    between atoms: _393  and  _395
REMARK  161  A    between atoms: _395  and  _396
REMARK  162  A    between atoms: _398  and  _400
REMARK  163  A    between atoms: _400  and  _401
REMARK  164  A    between atoms: _403  and  _405
REMARK  165  A    between atoms: _405  and  _406
REMARK  166  A    between atoms: _405  and  _408
REMARK  167  A    between atoms: _408  and  _409
REMARK  168  A    between atoms: _412  and  _414
REMARK  169  A    between atoms: _414  and  _415
REMARK  170  A    between atoms: _414  and  _417
REMARK  171  A    between atoms: _420  and  _422
REMARK  172  A    between atoms: _422  and  _423
REMARK  173  A    between atoms: _422  and  _425
REMARK  174  A    between atoms: _425  and  _426
REMARK  175  A    between atoms: _430  and  _431
REMARK  176  A    between atoms: _436  and  _438
REMARK  177  A    between atoms: _438  and  _439
REMARK  178  A    between atoms: _438  and  _441
REMARK  179  A    between atoms: _441  and  _442
REMARK  180  A    between atoms: _446  and  _447
REMARK  181  A    between atoms: _452  and  _454
REMARK  182  A    between atoms: _454  and  _455
REMARK  183  A    between atoms: _454  and  _457
REMARK  184  A    between atoms: _457  and  _458
REMARK  185  A    between atoms: _464  and  _466
REMARK  186  A    between atoms: _466  and  _467
REMARK  187  A    between atoms: _466  and  _469
REMARK  188  A    between atoms: _469  and  _470
REMARK  189  A    between atoms: _475  and  _477
REMARK  190  A    between atoms: _477  and  _478
REMARK  191  A    between atoms: _477  and  _480
REMARK  192  A    between atoms: _480  and  _481
REMARK  193  A    between atoms: _484  and  _486
REMARK  194  A    between atoms: _486  and  _487
REMARK  195  A    between atoms: _486  and  _489
REMARK  196  A    between atoms: _489  and  _490
REMARK  197  A    between atoms: _493  and  _495
REMARK  198  A    between atoms: _495  and  _496
REMARK  199  A    between atoms: _498  and  _500
REMARK  200  A    between atoms: _500  and  _501
REMARK  201  A    between atoms: _500  and  _503
REMARK  202  A    between atoms: _503  and  _504
REMARK  203  A    between atoms: _504  and  _505
REMARK  204  A    between atoms: _505  and  _506
REMARK  205  A    between atoms: _515  and  _517
REMARK  206  A    between atoms: _517  and  _518
REMARK  207  A    between atoms: _517  and  _520
REMARK  208  A    between atoms: _520  and  _521
REMARK                            x       y       z     vdW  Elec       q    Type
REMARK                         _______ _______ _______ _____ _____    ______ ____
ROOT
ATOM      1  C   GLY A   5      -9.628  21.931  24.851  0.00  0.00    +0.243 C 
ATOM      2  O   GLY A   5      -8.489  21.543  24.709  0.00  0.00    -0.273 OA
ATOM      3  N   ALA A   6     -10.615  21.535  24.045  0.00  0.00    -0.297 N 
ATOM      4  H   ALA A   6     -11.582  21.880  24.212  0.00  0.00    +0.150 HD
ENDROOT
BRANCH   3   5
ATOM      5  CA  ALA A   6     -10.358  20.625  22.933  0.00  0.00    +0.149 C 
ATOM      6  CB  ALA A   6     -11.507  19.637  22.785  0.00  0.00    +0.031 C 
BRANCH   5   7
ATOM      7  C   ALA A   6     -10.295  21.421  21.649  0.00  0.00    +0.241 C 
ATOM      8  O   ALA A   6     -11.154  22.215  21.327  0.00  0.00    -0.273 OA
ATOM      9  N   ASP A   7      -9.256  21.200  20.866  0.00  0.00    -0.297 N 
ATOM     10  H   ASP A   7      -8.494  20.547  21.138  0.00  0.00    +0.150 HD
BRANCH   9  11
ATOM     11  CA  ASP A   7      -9.234  21.925  19.592  0.00  0.00    +0.160 C 
BRANCH  11  12
ATOM     12  C   ASP A   7     -10.291  21.489  18.608  0.00  0.00    +0.241 C 
ATOM     13  N   ASP A   8     -10.519  20.176  18.623  0.00  0.00    -0.297 N 
ATOM     14  H   ASP A   8     -10.041  19.602  19.346  0.00  0.00    +0.150 HD
ATOM     15  O   ASP A   7     -10.854  22.299  17.892  0.00  0.00    -0.273 OA
BRANCH  13  16
ATOM     16  CA  ASP A   8     -11.399  19.504  17.684  0.00  0.00    +0.160 C 
BRANCH  16  17
ATOM     17  C   ASP A   8     -12.489  18.737  18.396  0.00  0.00    +0.241 C 
ATOM     18  O   ASP A   8     -12.482  18.589  19.602  0.00  0.00    -0.273 OA
ATOM     19  N   THR A   9     -13.394  18.210  17.596  0.00  0.00    -0.295 N 
ATOM     20  H   THR A   9     -13.260  18.293  16.568  0.00  0.00    +0.150 HD
BRANCH  19  21
ATOM     21  CA  THR A   9     -14.571  17.518  18.092  0.00  0.00    +0.176 C 
BRANCH  21  22
ATOM     22  C   THR A   9     -14.370  16.034  17.959  0.00  0.00    +0.243 C 
ATOM     23  N   VAL A  10     -14.654  15.306  19.037  0.00  0.00    -0.298 N 
ATOM     24  H   VAL A  10     -15.036  15.778  19.881  0.00  0.00    +0.150 HD
ATOM     25  O   THR A   9     -13.947  15.582  16.906  0.00  0.00    -0.273 OA
BRANCH  23  26
ATOM     26  CA  VAL A  10     -14.441  13.855  19.063  0.00  0.00    +0.137 C 
BRANCH  26  27
ATOM     27  CB  VAL A  10     -13.359  13.413  20.062  0.00  0.00    +0.026 C 
ATOM     28  CG2 VAL A  10     -12.161  14.353  20.062  0.00  0.00    +0.002 C 
ATOM     29  CG1 VAL A  10     -12.959  11.950  19.834  0.00  0.00    +0.002 C 
ENDBRANCH  26  27
BRANCH  26  30
ATOM     30  C   VAL A  10     -15.693  13.190  19.550  0.00  0.00    +0.227 C 
ATOM     31  O   VAL A  10     -16.216  13.529  20.596  0.00  0.00    -0.286 OA
ENDBRANCH  26  30
ENDBRANCH  23  26
ENDBRANCH  21  22
BRANCH  21  32
ATOM     32  CB  THR A   9     -15.719  18.036  17.205  0.00  0.00    +0.137 C 
ATOM     33  CG2 THR A   9     -17.026  17.270  17.369  0.00  0.00    +0.034 C 
BRANCH  32  34
ATOM     34  OG1 THR A   9     -15.927  19.414  17.538  0.00  0.00    -0.382 OA
ATOM     35  HG1 THR A   9     -15.096  19.923  17.364  0.00  0.00    +0.210 HD
ENDBRANCH  32  34
ENDBRANCH  21  32
ENDBRANCH  19  21
ENDBRANCH  16  17
BRANCH  16  36
ATOM     36  CB  ASP A   8     -10.605  18.462  16.902  0.00  0.00    +0.143 C 
BRANCH  36  37
ATOM     37  CG  ASP A   8      -9.630  19.047  15.897  0.00  0.00    +0.367 C 
ATOM     38  OD2 ASP A   8      -8.457  18.693  15.990  0.00  0.00    -0.246 OA
ATOM     39  OD1 ASP A   8     -10.025  19.827  15.026  0.00  0.00    -0.246 OA
ENDBRANCH  36  37
ENDBRANCH  16  36
ENDBRANCH  13  16
ENDBRANCH  11  12
BRANCH  11  40
ATOM     40  CB  ASP A   7      -7.878  21.802  18.918  0.00  0.00    +0.143 C 
BRANCH  40  41
ATOM     41  CG  ASP A   7      -6.800  22.083  19.924  0.00  0.00    +0.367 C 
ATOM     42  OD2 ASP A   7      -6.792  23.145  20.551  0.00  0.00    -0.246 OA
ATOM     43  OD1 ASP A   7      -5.971  21.206  20.098  0.00  0.00    -0.246 OA
ENDBRANCH  40  41
ENDBRANCH  11  40
ENDBRANCH   9  11
ENDBRANCH   5   7
ENDBRANCH   3   5
BRANCH   1  44
ATOM     44  CA  GLY A   5      -9.991  22.828  26.002  0.00  0.00    +0.176 C 
BRANCH  44  46
ATOM     45  C   THR A   4     -11.634  24.411  25.285  0.00  0.00    +0.243 C 
ATOM     46  N   GLY A   5     -11.359  23.311  25.971  0.00  0.00    -0.295 N 
ATOM     47  H   GLY A   5     -12.111  22.803  26.479  0.00  0.00    +0.150 HD
ATOM     48  O   THR A   4     -10.790  25.006  24.640  0.00  0.00    -0.273 OA
BRANCH  45  49
ATOM     49  CA  THR A   4     -13.079  24.899  25.380  0.00  0.00    +0.176 C 
BRANCH  49  51
ATOM     50  C   ASP A   3     -14.236  22.818  25.119  0.00  0.00    +0.241 C 
ATOM     51  N   THR A   4     -14.058  23.915  25.827  0.00  0.00    -0.295 N 
ATOM     52  H   THR A   4     -14.609  24.077  26.694  0.00  0.00    +0.150 HD
ATOM     53  O   ASP A   3     -13.600  22.611  24.107  0.00  0.00    -0.273 OA
BRANCH  50  54
ATOM     54  CA  ASP A   3     -15.206  21.810  25.712  0.00  0.00    +0.160 C 
BRANCH  54  57
ATOM     55  C   LEU A   2     -17.583  22.024  25.929  0.00  0.00    +0.241 C 
ATOM     56  O   LEU A   2     -17.499  22.249  27.127  0.00  0.00    -0.273 OA
ATOM     57  N   ASP A   3     -16.535  21.955  25.128  0.00  0.00    -0.297 N 
ATOM     58  H   ASP A   3     -16.655  22.003  24.096  0.00  0.00    +0.150 HD
BRANCH  55  59
ATOM     59  CA  LEU A   2     -18.924  21.797  25.276  0.00  0.00    +0.149 C 
BRANCH  59  61
ATOM     60  C   LEU A   1     -19.252  19.442  25.443  0.00  0.00    +0.238 C 
ATOM     61  N   LEU A   2     -19.548  20.638  25.892  0.00  0.00    -0.297 N 
ATOM     62  H   LEU A   2     -20.219  20.755  26.677  0.00  0.00    +0.150 HD
ATOM     63  O   LEU A   1     -18.541  19.240  24.466  0.00  0.00    -0.274 OA
BRANCH  60  64
ATOM     64  CA  LEU A   1     -19.813  18.319  26.268  0.00  0.00    +0.145 C 
BRANCH  64  65
ATOM     65  N   LEU A   1     -20.389  17.316  25.371  0.00  0.00    -0.238 NA
ATOM     66  H   LEU A   1     -19.798  16.534  25.024  0.00  0.00    +0.142 HD
ENDBRANCH  64  65
BRANCH  64  67
ATOM     67  CB  LEU A   1     -18.541  17.809  26.926  0.00  0.00    +0.026 C 
BRANCH  67  68
ATOM     68  CG  LEU A   1     -18.448  17.454  28.396  0.00  0.00    +0.002 C 
ATOM     69  CD2 LEU A   1     -18.988  18.505  29.342  0.00  0.00    +0.000 C 
ATOM     70  CD1 LEU A   1     -16.958  17.244  28.661  0.00  0.00    +0.000 C 
ENDBRANCH  67  68
ENDBRANCH  64  67
ENDBRANCH  60  64
ENDBRANCH  59  61
BRANCH  59  71
ATOM     71  CB  LEU A   2     -19.819  22.969  25.620  0.00  0.00    +0.029 C 
BRANCH  71  72
ATOM     72  CG  LEU A   2     -20.802  23.496  24.582  0.00  0.00    +0.002 C 
ATOM     73  CD2 LEU A   2     -21.966  24.108  25.344  0.00  0.00    +0.000 C 
ATOM     74  CD1 LEU A   2     -21.175  22.473  23.511  0.00  0.00    +0.000 C 
ENDBRANCH  71  72
ENDBRANCH  59  71
ENDBRANCH  55  59
ENDBRANCH  54  57
BRANCH  54  75
ATOM     75  CB  ASP A   3     -14.800  20.367  25.401  0.00  0.00    +0.143 C 
BRANCH  75  76
ATOM     76  CG  ASP A   3     -13.570  19.846  26.097  0.00  0.00    +0.367 C 
ATOM     77  OD2 ASP A   3     -12.658  20.606  26.403  0.00  0.00    -0.246 OA
ATOM     78  OD1 ASP A   3     -13.525  18.647  26.336  0.00  0.00    -0.246 OA
ENDBRANCH  75  76
ENDBRANCH  54  75
ENDBRANCH  50  54
ENDBRANCH  49  51
BRANCH  49  79
ATOM     79  CB  THR A   4     -13.164  26.147  26.287  0.00  0.00    +0.137 C 
ATOM     80  CG2 THR A   4     -14.475  26.897  26.147  0.00  0.00    +0.034 C 
BRANCH  79  81
ATOM     81  OG1 THR A   4     -13.024  25.808  27.666  0.00  0.00    -0.382 OA
ATOM     82  HG1 THR A   4     -12.145  25.376  27.811  0.00  0.00    +0.210 HD
ENDBRANCH  79  81
ENDBRANCH  49  79
ENDBRANCH  45  49
ENDBRANCH  44  46
ENDBRANCH   1  44
TORSDOF 35
REMARK  Name = ../refined-set-2016/1met/1met_pocket.pdb
REMARK  208 active torsions:
REMARK  status: ('A' for Active; 'I' for Inactive)
REMARK    1  A    between atoms: _1  and  _3
REMARK    2  A    between atoms: _3  and  _4
REMARK    3  A    between atoms: _3  and  _6
REMARK    4  A    between atoms: _6  and  _7
REMARK    5  A    between atoms: _7  and  _8
REMARK    6  A    between atoms: _8  and  _9
REMARK    7  A    between atoms: _18  and  _20
REMARK    8  A    between atoms: _20  and  _21
REMARK    9  A    between atoms: _20  and  _23
REMARK   10  A    between atoms: _23  and  _24
REMARK   11  A    between atoms: _27  and  _29
REMARK   12  A    between atoms: _29  and  _30
REMARK   13  A    between atoms: _29  and  _32
REMARK   14  A    between atoms: _32  and  _33
REMARK   15  A    between atoms: _36  and  _38
REMARK   16  A    between atoms: _38  and  _39
REMARK   17  A    between atoms: _38  and  _41
REMARK   18  A    between atoms: _41  and  _42
REMARK   19  A    between atoms: _45  and  _47
REMARK   20  A    between atoms: _47  and  _48
REMARK   21  A    between atoms: _47  and  _50
REMARK   22  A    between atoms: _50  and  _51
REMARK   23  A    between atoms: _54  and  _56
REMARK   24  A    between atoms: _56  and  _57
REMARK   25  A    between atoms: _59  and  _61
REMARK   26  A    between atoms: _61  and  _62
REMARK   27  A    between atoms: _65  and  _67
REMARK   28  A    between atoms: _67  and  _68
REMARK   29  A    between atoms: _67  and  _70
REMARK   30  A    between atoms: _70  and  _71
REMARK   31  A    between atoms: _74  and  _76
REMARK   32  A    between atoms: _76  and  _77
REMARK   33  A    between atoms: _76  and  _79
REMARK   34  A    between atoms: _79  and  _80
REMARK   35  A    between atoms: _83  and  _85
REMARK   36  A    between atoms: _85  and  _86
REMARK   37  A    between atoms: _85  and  _88
REMARK   38  A    between atoms: _88  and  _89
REMARK   39  A    between atoms: _92  and  _94
REMARK   40  A    between atoms: _94  and  _95
REMARK   41  A    between atoms: _94  and  _97
REMARK   42  A    between atoms: _100  and  _102
REMARK   43  A    between atoms: _102  and  _103
REMARK   44  A    between atoms: _102  and  _105
REMARK   45  A    between atoms: _105  and  _106
REMARK   46  A    between atoms: _109  and  _111
REMARK   47  A    between atoms: _111  and  _112
REMARK   48  A    between atoms: _114  and  _116
REMARK   49  A    between atoms: _116  and  _117
REMARK   50  A    between atoms: _119  and  _121
REMARK   51  A    between atoms: _121  and  _122
REMARK   52  A    between atoms: _121  and  _124
REMARK   53  A    between atoms: _124  and  _125
REMARK   54  A    between atoms: _128  and  _130
REMARK   55  A    between atoms: _130  and  _131
REMARK   56  A    between atoms: _133  and  _135
REMARK   57  A    between atoms: _135  and  _136
REMARK   58  A    between atoms: _138  and  _140
REMARK   59  A    between atoms: _140  and  _141
REMARK   60  A    between atoms: _140  and  _143
REMARK   61  A    between atoms: _143  and  _144
REMARK   62  A    between atoms: _147  and  _149
REMARK   63  A    between atoms: _149  and  _150
REMARK   64  A    between atoms: _149  and  _152
REMARK   65  A    between atoms: _152  and  _153
REMARK   66  A    between atoms: _157  and  _158
REMARK   67  A    between atoms: _163  and  _165
REMARK   68  A    between atoms: _165  and  _166
REMARK   69  A    between atoms: _165  and  _168
REMARK   70  A    between atoms: _168  and  _169
REMARK   71  A    between atoms: _173  and  _174
REMARK   72  A    between atoms: _179  and  _181
REMARK   73  A    between atoms: _181  and  _182
REMARK   74  A    between atoms: _181  and  _184
REMARK   75  A    between atoms: _184  and  _185
REMARK   76  A    between atoms: _191  and  _193
REMARK   77  A    between atoms: _193  and  _194
REMARK   78  A    between atoms: _193  and  _196
REMARK   79  A    between atoms: _196  and  _197
REMARK   80  A    between atoms: _202  and  _204
REMARK   81  A    between atoms: _204  and  _205
REMARK   82  A    between atoms: _204  and  _207
REMARK   83  A    between atoms: _207  and  _208
REMARK   84  A    between atoms: _211  and  _213
REMARK   85  A    between atoms: _213  and  _214
REMARK   86  A    between atoms: _213  and  _216
REMARK   87  A    between atoms: _216  and  _217
REMARK   88  A    between atoms: _220  and  _222
REMARK   89  A    between atoms: _222  and  _223
REMARK   90  A    between atoms: _225  and  _227
REMARK   91  A    between atoms: _227  and  _228
REMARK   92  A    between atoms: _227  and  _230
REMARK   93  A    between atoms: _230  and  _231
REMARK   94  A    between atoms: _231  and  _232
REMARK   95  A    between atoms: _232  and  _233
REMARK   96  A    between atoms: _242  and  _244
REMARK   97  A    between atoms: _244  and  _245
REMARK   98  A    between atoms: _244  and  _247
REMARK   99  A    between atoms: _247  and  _248
REMARK  100  A    between atoms: _253  and  _255
REMARK  101  A    between atoms: _255  and  _256
REMARK  102  A    between atoms: _255  and  _258
REMARK  103  A    between atoms: _258  and  _259
REMARK  104  A    between atoms: _259  and  _260
REMARK  105  A    between atoms: _260  and  _261
REMARK  106  A    between atoms: _270  and  _272
REMARK  107  A    between atoms: _272  and  _273
REMARK  108  A    between atoms: _272  and  _275
REMARK  109  A    between atoms: _275  and  _276
REMARK  110  A    between atoms: _279  and  _281
REMARK  111  A    between atoms: _281  and  _282
REMARK  112  A    between atoms: _281  and  _284
REMARK  113  A    between atoms: _284  and  _285
REMARK  114  A    between atoms: _288  and  _290
REMARK  115  A    between atoms: _290  and  _291
REMARK  116  A    between atoms: _290  and  _293
REMARK  117  A    between atoms: _293  and  _294
REMARK  118  A    between atoms: _297  and  _299
REMARK  119  A    between atoms: _299  and  _300
REMARK  120  A    between atoms: _299  and  _302
REMARK  121  A    between atoms: _302  and  _303
REMARK  122  A    between atoms: _306  and  _308
REMARK  123  A    between atoms: _308  and  _309
REMARK  124  A    between atoms: _311  and  _313
REMARK  125  A    between atoms: _313  and  _314
REMARK  126  A    between atoms: _317  and  _319
REMARK  127  A    between atoms: _319  and  _320
REMARK  128  A    between atoms: _319  and  _322
REMARK  129  A    between atoms: _322  and  _323
REMARK  130  A    between atoms: _326  and  _328
REMARK  131  A    between atoms: _328  and  _329
REMARK  132  A    between atoms: _328  and  _331
REMARK  133  A    between atoms: _331  and  _332
REMARK  134  A    between atoms: _335  and  _337
REMARK  135  A    between atoms: _337  and  _338
REMARK  136  A    between atoms: _337  and  _340
REMARK  137  A    between atoms: _340  and  _341
REMARK  138  A    between atoms: _344  and  _346
REMARK  139  A    between atoms: _346  and  _347
REMARK  140  A    between atoms: _346  and  _349
REMARK  141  A    between atoms: _352  and  _354
REMARK  142  A    between atoms: _354  and  _355
REMARK  143  A    between atoms: _354  and  _357
REMARK  144  A    between atoms: _357  and  _358
REMARK  145  A    between atoms: _358  and  _359
REMARK  146  A    between atoms: _359  and  _360
REMARK  147  A    between atoms: _360  and  _361
REMARK  148  A    between atoms: _365  and  _367
REMARK  149  A    between atoms: _367  and  _368
REMARK  150  A    between atoms: _367  and  _370
REMARK  151  A    between atoms: _370  and  _371
REMARK  152  A    between atoms: _374  and  _376
REMARK  153  A    between atoms: _376  and  _377
REMARK  154  A    between atoms: _379  and  _381
REMARK  155  A    between atoms: _381  and  _382
REMARK  156  A    between atoms: _384  and  _386
REMARK  157  A    between atoms: _386  and  _387
REMARK  158  A    between atoms: _386  and  _389
REMARK  159  A    between atoms: _389  and  _390
REMARK  160  A    between atoms: _393  and  _395
REMARK  161  A    between atoms: _395  and  _396
REMARK  162  A    between atoms: _398  and  _400
REMARK  163  A    between atoms: _400  and  _401
REMARK  164  A    between atoms: _403  and  _405
REMARK  165  A    between atoms: _405  and  _406
REMARK  166  A    between atoms: _405  and  _408
REMARK  167  A    between atoms: _408  and  _409
REMARK  168  A    between atoms: _412  and  _414
REMARK  169  A    between atoms: _414  and  _415
REMARK  170  A    between atoms: _414  and  _417
REMARK  171  A    between atoms: _420  and  _422
REMARK  172  A    between atoms: _422  and  _423
REMARK  173  A    between atoms: _422  and  _425
REMARK  174  A    between atoms: _425  and  _426
REMARK  175  A    between atoms: _430  and  _431
REMARK  176  A    between atoms: _436  and  _438
REMARK  177  A    between atoms: _438  and  _439
REMARK  178  A    between atoms: _438  and  _441
REMARK  179  A    between atoms: _441  and  _442
REMARK  180  A    between atoms: _446  and  _447
REMARK  181  A    between atoms: _452  and  _454
REMARK  182  A    between atoms: _454  and  _455
REMARK  183  A    between atoms: _454  and  _457
REMARK  184  A    between atoms: _457  and  _458
REMARK  185  A    between atoms: _464  and  _466
REMARK  186  A    between atoms: _466  and  _467
REMARK  187  A    between atoms: _466  and  _469
REMARK  188  A    between atoms: _469  and  _470
REMARK  189  A    between atoms: _475  and  _477
REMARK  190  A    between atoms: _477  and  _478
REMARK  191  A    between atoms: _477  and  _480
REMARK  192  A    between atoms: _480  and  _481
REMARK  193  A    between atoms: _484  and  _486
REMARK  194  A    between atoms: _486  and  _487
REMARK  195  A    between atoms: _486  and  _489
REMARK  196  A    between atoms: _489  and  _490
REMARK  197  A    between atoms: _493  and  _495
REMARK  198  A    between atoms: _495  and  _496
REMARK  199  A    between atoms: _498  and  _500
REMARK  200  A    between atoms: _500  and  _501
REMARK  201  A    between atoms: _500  and  _503
REMARK  202  A    between atoms: _503  and  _504
REMARK  203  A    between atoms: _504  and  _505
REMARK  204  A    between atoms: _505  and  _506
REMARK  205  A    between atoms: _515  and  _517
REMARK  206  A    between atoms: _517  and  _518
REMARK  207  A    between atoms: _517  and  _520
REMARK  208  A    between atoms: _520  and  _521
REMARK                            x       y       z     vdW  Elec       q    Type
REMARK                         _______ _______ _______ _____ _____    ______ ____
ROOT
ATOM      1  CG  LYS A   1      -5.593  12.627  13.035  0.00  0.00    -0.000 C 
ENDROOT
BRANCH   1   2
ATOM      2  CB  LYS A   1      -6.411  11.371  12.722  0.00  0.00    +0.025 C 
BRANCH   2   3
ATOM      3  CA  LYS A   1      -5.576  10.075  12.730  0.00  0.00    +0.133 C 
BRANCH   3   4
ATOM      4  N   LYS A   1      -6.362   9.040  12.065  0.00  0.00    -0.239 NA
ATOM      5  H   LYS A   1      -7.116   8.578  12.612  0.00  0.00    +0.142 HD
ENDBRANCH   3   4
BRANCH   3   6
ATOM      6  C   LYS A   1      -5.304   9.591  14.164  0.00  0.00    +0.224 C 
ATOM      7  O   LYS A   1      -5.955   8.679  14.656  0.00  0.00    -0.287 OA
ENDBRANCH   3   6
ENDBRANCH   2   3
ENDBRANCH   1   2
BRANCH   1   8
ATOM      8  CD  LYS A   1      -6.330  13.895  13.486  0.00  0.00    -0.024 C 
BRANCH   8   9
ATOM      9  CE  LYS A   1      -5.401  15.084  13.188  0.00  0.00    -0.086 C 
BRANCH   9  10
ATOM     10  NZ  LYS A   1      -5.618  16.231  14.096  0.00  0.00    +0.380 N 
ATOM     11  HZ1 LYS A   1      -5.444  15.933  15.077  0.00  0.00    -0.089 HD
ATOM     12  HZ2 LYS A   1      -6.598  16.565  14.002  0.00  0.00    -0.089 HD
ATOM     13  HZ3 LYS A   1      -4.963  16.999  13.845  0.00  0.00    -0.089 HD
ENDBRANCH   9  10
ENDBRANCH   8   9
ENDBRANCH   1   8
TORSDOF 7
REMARK  Name = ../refined-set-2016/1met/1met_pocket.pdb
REMARK  208 active torsions:
REMARK  status: ('A' for Active; 'I' for Inactive)
REMARK    1  A    between atoms: _1  and  _3
REMARK    2  A    between atoms: _3  and  _4
REMARK    3  A    between atoms: _3  and  _6
REMARK    4  A    between atoms: _6  and  _7
REMARK    5  A    between atoms: _7  and  _8
REMARK    6  A    between atoms: _8  and  _9
REMARK    7  A    between atoms: _18  and  _20
REMARK    8  A    between atoms: _20  and  _21
REMARK    9  A    between atoms: _20  and  _23
REMARK   10  A    between atoms: _23  and  _24
REMARK   11  A    between atoms: _27  and  _29
REMARK   12  A    between atoms: _29  and  _30
REMARK   13  A    between atoms: _29  and  _32
REMARK   14  A    between atoms: _32  and  _33
REMARK   15  A    between atoms: _36  and  _38
REMARK   16  A    between atoms: _38  and  _39
REMARK   17  A    between atoms: _38  and  _41
REMARK   18  A    between atoms: _41  and  _42
REMARK   19  A    between atoms: _45  and  _47
REMARK   20  A    between atoms: _47  and  _48
REMARK   21  A    between atoms: _47  and  _50
REMARK   22  A    between atoms: _50  and  _51
REMARK   23  A    between atoms: _54  and  _56
REMARK   24  A    between atoms: _56  and  _57
REMARK   25  A    between atoms: _59  and  _61
REMARK   26  A    between atoms: _61  and  _62
REMARK   27  A    between atoms: _65  and  _67
REMARK   28  A    between atoms: _67  and  _68
REMARK   29  A    between atoms: _67  and  _70
REMARK   30  A    between atoms: _70  and  _71
REMARK   31  A    between atoms: _74  and  _76
REMARK   32  A    between atoms: _76  and  _77
REMARK   33  A    between atoms: _76  and  _79
REMARK   34  A    between atoms: _79  and  _80
REMARK   35  A    between atoms: _83  and  _85
REMARK   36  A    between atoms: _85  and  _86
REMARK   37  A    between atoms: _85  and  _88
REMARK   38  A    between atoms: _88  and  _89
REMARK   39  A    between atoms: _92  and  _94
REMARK   40  A    between atoms: _94  and  _95
REMARK   41  A    between atoms: _94  and  _97
REMARK   42  A    between atoms: _100  and  _102
REMARK   43  A    between atoms: _102  and  _103
REMARK   44  A    between atoms: _102  and  _105
REMARK   45  A    between atoms: _105  and  _106
REMARK   46  A    between atoms: _109  and  _111
REMARK   47  A    between atoms: _111  and  _112
REMARK   48  A    between atoms: _114  and  _116
REMARK   49  A    between atoms: _116  and  _117
REMARK   50  A    between atoms: _119  and  _121
REMARK   51  A    between atoms: _121  and  _122
REMARK   52  A    between atoms: _121  and  _124
REMARK   53  A    between atoms: _124  and  _125
REMARK   54  A    between atoms: _128  and  _130
REMARK   55  A    between atoms: _130  and  _131
REMARK   56  A    between atoms: _133  and  _135
REMARK   57  A    between atoms: _135  and  _136
REMARK   58  A    between atoms: _138  and  _140
REMARK   59  A    between atoms: _140  and  _141
REMARK   60  A    between atoms: _140  and  _143
REMARK   61  A    between atoms: _143  and  _144
REMARK   62  A    between atoms: _147  and  _149
REMARK   63  A    between atoms: _149  and  _150
REMARK   64  A    between atoms: _149  and  _152
REMARK   65  A    between atoms: _152  and  _153
REMARK   66  A    between atoms: _157  and  _158
REMARK   67  A    between atoms: _163  and  _165
REMARK   68  A    between atoms: _165  and  _166
REMARK   69  A    between atoms: _165  and  _168
REMARK   70  A    between atoms: _168  and  _169
REMARK   71  A    between atoms: _173  and  _174
REMARK   72  A    between atoms: _179  and  _181
REMARK   73  A    between atoms: _181  and  _182
REMARK   74  A    between atoms: _181  and  _184
REMARK   75  A    between atoms: _184  and  _185
REMARK   76  A    between atoms: _191  and  _193
REMARK   77  A    between atoms: _193  and  _194
REMARK   78  A    between atoms: _193  and  _196
REMARK   79  A    between atoms: _196  and  _197
REMARK   80  A    between atoms: _202  and  _204
REMARK   81  A    between atoms: _204  and  _205
REMARK   82  A    between atoms: _204  and  _207
REMARK   83  A    between atoms: _207  and  _208
REMARK   84  A    between atoms: _211  and  _213
REMARK   85  A    between atoms: _213  and  _214
REMARK   86  A    between atoms: _213  and  _216
REMARK   87  A    between atoms: _216  and  _217
REMARK   88  A    between atoms: _220  and  _222
REMARK   89  A    between atoms: _222  and  _223
REMARK   90  A    between atoms: _225  and  _227
REMARK   91  A    between atoms: _227  and  _228
REMARK   92  A    between atoms: _227  and  _230
REMARK   93  A    between atoms: _230  and  _231
REMARK   94  A    between atoms: _231  and  _232
REMARK   95  A    between atoms: _232  and  _233
REMARK   96  A    between atoms: _242  and  _244
REMARK   97  A    between atoms: _244  and  _245
REMARK   98  A    between atoms: _244  and  _247
REMARK   99  A    between atoms: _247  and  _248
REMARK  100  A    between atoms: _253  and  _255
REMARK  101  A    between atoms: _255  and  _256
REMARK  102  A    between atoms: _255  and  _258
REMARK  103  A    between atoms: _258  and  _259
REMARK  104  A    between atoms: _259  and  _260
REMARK  105  A    between atoms: _260  and  _261
REMARK  106  A    between atoms: _270  and  _272
REMARK  107  A    between atoms: _272  and  _273
REMARK  108  A    between atoms: _272  and  _275
REMARK  109  A    between atoms: _275  and  _276
REMARK  110  A    between atoms: _279  and  _281
REMARK  111  A    between atoms: _281  and  _282
REMARK  112  A    between atoms: _281  and  _284
REMARK  113  A    between atoms: _284  and  _285
REMARK  114  A    between atoms: _288  and  _290
REMARK  115  A    between atoms: _290  and  _291
REMARK  116  A    between atoms: _290  and  _293
REMARK  117  A    between atoms: _293  and  _294
REMARK  118  A    between atoms: _297  and  _299
REMARK  119  A    between atoms: _299  and  _300
REMARK  120  A    between atoms: _299  and  _302
REMARK  121  A    between atoms: _302  and  _303
REMARK  122  A    between atoms: _306  and  _308
REMARK  123  A    between atoms: _308  and  _309
REMARK  124  A    between atoms: _311  and  _313
REMARK  125  A    between atoms: _313  and  _314
REMARK  126  A    between atoms: _317  and  _319
REMARK  127  A    between atoms: _319  and  _320
REMARK  128  A    between atoms: _319  and  _322
REMARK  129  A    between atoms: _322  and  _323
REMARK  130  A    between atoms: _326  and  _328
REMARK  131  A    between atoms: _328  and  _329
REMARK  132  A    between atoms: _328  and  _331
REMARK  133  A    between atoms: _331  and  _332
REMARK  134  A    between atoms: _335  and  _337
REMARK  135  A    between atoms: _337  and  _338
REMARK  136  A    between atoms: _337  and  _340
REMARK  137  A    between atoms: _340  and  _341
REMARK  138  A    between atoms: _344  and  _346
REMARK  139  A    between atoms: _346  and  _347
REMARK  140  A    between atoms: _346  and  _349
REMARK  141  A    between atoms: _352  and  _354
REMARK  142  A    between atoms: _354  and  _355
REMARK  143  A    between atoms: _354  and  _357
REMARK  144  A    between atoms: _357  and  _358
REMARK  145  A    between atoms: _358  and  _359
REMARK  146  A    between atoms: _359  and  _360
REMARK  147  A    between atoms: _360  and  _361
REMARK  148  A    between atoms: _365  and  _367
REMARK  149  A    between atoms: _367  and  _368
REMARK  150  A    between atoms: _367  and  _370
REMARK  151  A    between atoms: _370  and  _371
REMARK  152  A    between atoms: _374  and  _376
REMARK  153  A    between atoms: _376  and  _377
REMARK  154  A    between atoms: _379  and  _381
REMARK  155  A    between atoms: _381  and  _382
REMARK  156  A    between atoms: _384  and  _386
REMARK  157  A    between atoms: _386  and  _387
REMARK  158  A    between atoms: _386  and  _389
REMARK  159  A    between atoms: _389  and  _390
REMARK  160  A    between atoms: _393  and  _395
REMARK  161  A    between atoms: _395  and  _396
REMARK  162  A    between atoms: _398  and  _400
REMARK  163  A    between atoms: _400  and  _401
REMARK  164  A    between atoms: _403  and  _405
REMARK  165  A    between atoms: _405  and  _406
REMARK  166  A    between atoms: _405  and  _408
REMARK  167  A    between atoms: _408  and  _409
REMARK  168  A    between atoms: _412  and  _414
REMARK  169  A    between atoms: _414  and  _415
REMARK  170  A    between atoms: _414  and  _417
REMARK  171  A    between atoms: _420  and  _422
REMARK  172  A    between atoms: _422  and  _423
REMARK  173  A    between atoms: _422  and  _425
REMARK  174  A    between atoms: _425  and  _426
REMARK  175  A    between atoms: _430  and  _431
REMARK  176  A    between atoms: _436  and  _438
REMARK  177  A    between atoms: _438  and  _439
REMARK  178  A    between atoms: _438  and  _441
REMARK  179  A    between atoms: _441  and  _442
REMARK  180  A    between atoms: _446  and  _447
REMARK  181  A    between atoms: _452  and  _454
REMARK  182  A    between atoms: _454  and  _455
REMARK  183  A    between atoms: _454  and  _457
REMARK  184  A    between atoms: _457  and  _458
REMARK  185  A    between atoms: _464  and  _466
REMARK  186  A    between atoms: _466  and  _467
REMARK  187  A    between atoms: _466  and  _469
REMARK  188  A    between atoms: _469  and  _470
REMARK  189  A    between atoms: _475  and  _477
REMARK  190  A    between atoms: _477  and  _478
REMARK  191  A    between atoms: _477  and  _480
REMARK  192  A    between atoms: _480  and  _481
REMARK  193  A    between atoms: _484  and  _486
REMARK  194  A    between atoms: _486  and  _487
REMARK  195  A    between atoms: _486  and  _489
REMARK  196  A    between atoms: _489  and  _490
REMARK  197  A    between atoms: _493  and  _495
REMARK  198  A    between atoms: _495  and  _496
REMARK  199  A    between atoms: _498  and  _500
REMARK  200  A    between atoms: _500  and  _501
REMARK  201  A    between atoms: _500  and  _503
REMARK  202  A    between atoms: _503  and  _504
REMARK  203  A    between atoms: _504  and  _505
REMARK  204  A    between atoms: _505  and  _506
REMARK  205  A    between atoms: _515  and  _517
REMARK  206  A    between atoms: _517  and  _518
REMARK  207  A    between atoms: _517  and  _520
REMARK  208  A    between atoms: _520  and  _521
REMARK                            x       y       z     vdW  Elec       q    Type
REMARK                         _______ _______ _______ _____ _____    ______ ____
ROOT
ATOM      1  C   GLY A   3      -4.466  13.157  26.957  0.00  0.00    +0.243 C 
ATOM      2  N   ILE A   4      -5.093  13.363  28.110  0.00  0.00    -0.297 N 
ATOM      3  H   ILE A   4      -6.015  13.839  28.174  0.00  0.00    +0.150 HD
ATOM      4  O   GLY A   3      -3.337  12.699  26.904  0.00  0.00    -0.273 OA
ENDROOT
BRANCH   2   5
ATOM      5  CA  ILE A   4      -4.377  12.864  29.276  0.00  0.00    +0.149 C 
BRANCH   5   6
ATOM      6  C   ILE A   4      -4.418  11.345  29.287  0.00  0.00    +0.241 C 
ATOM      7  N   GLY A   5      -3.383  10.722  29.797  0.00  0.00    -0.295 N 
ATOM      8  H   GLY A   5      -2.576  11.227  30.216  0.00  0.00    +0.150 HD
ATOM      9  O   ILE A   4      -5.357  10.733  28.834  0.00  0.00    -0.273 OA
BRANCH   7  10
ATOM     10  CA  GLY A   5      -3.450   9.266  29.731  0.00  0.00    +0.176 C 
BRANCH  10  11
ATOM     11  C   GLY A   5      -2.819   8.648  28.502  0.00  0.00    +0.243 C 
ATOM     12  O   GLY A   5      -2.270   7.561  28.573  0.00  0.00    -0.273 OA
ATOM     13  N   GLY A   6      -2.889   9.346  27.374  0.00  0.00    -0.296 N 
ATOM     14  H   GLY A   6      -3.309  10.297  27.344  0.00  0.00    +0.150 HD
BRANCH  13  15
ATOM     15  CA  GLY A   6      -2.343   8.705  26.173  0.00  0.00    +0.163 C 
BRANCH  15  16
ATOM     16  C   GLY A   6      -3.048   9.063  24.879  0.00  0.00    +0.229 C 
ATOM     17  O   GLY A   6      -3.672  10.105  24.748  0.00  0.00    -0.286 OA
ENDBRANCH  15  16
ENDBRANCH  13  15
ENDBRANCH  10  11
ENDBRANCH   7  10
ENDBRANCH   5   6
BRANCH   5  18
ATOM     18  CB  ILE A   4      -4.949  13.436  30.588  0.00  0.00    +0.027 C 
ATOM     19  CG2 ILE A   4      -4.762  14.955  30.758  0.00  0.00    +0.002 C 
BRANCH  18  20
ATOM     20  CG1 ILE A   4      -6.406  13.058  30.783  0.00  0.00    +0.002 C 
ATOM     21  CD1 ILE A   4      -6.681  12.598  32.217  0.00  0.00    +0.000 C 
ENDBRANCH  18  20
ENDBRANCH   5  18
ENDBRANCH   2   5
BRANCH   1  22
ATOM     22  CA  GLY A   3      -5.206  13.491  25.695  0.00  0.00    +0.176 C 
BRANCH  22  24
ATOM     23  C   GLY A   2      -4.257  13.416  23.465  0.00  0.00    +0.243 C 
ATOM     24  N   GLY A   3      -4.513  12.820  24.604  0.00  0.00    -0.295 N 
ATOM     25  H   GLY A   3      -4.211  11.833  24.733  0.00  0.00    +0.150 HD
ATOM     26  O   GLY A   2      -4.595  14.549  23.174  0.00  0.00    -0.273 OA
BRANCH  23  27
ATOM     27  CA  GLY A   2      -3.511  12.563  22.490  0.00  0.00    +0.176 C 
BRANCH  27  29
ATOM     28  C   ILE A   1      -4.443  11.908  20.414  0.00  0.00    +0.238 C 
ATOM     29  N   GLY A   2      -3.926  12.879  21.138  0.00  0.00    -0.296 N 
ATOM     30  H   GLY A   2      -3.819  13.839  20.753  0.00  0.00    +0.150 HD
ATOM     31  O   ILE A   1      -4.560  10.751  20.781  0.00  0.00    -0.274 OA
BRANCH  28  32
ATOM     32  CA  ILE A   1      -4.909  12.313  19.060  0.00  0.00    +0.145 C 
BRANCH  32  33
ATOM     33  CB  ILE A   1      -6.284  13.016  19.174  0.00  0.00    +0.025 C 
ATOM     34  CG2 ILE A   1      -6.712  13.671  17.858  0.00  0.00    +0.002 C 
BRANCH  33  35
ATOM     35  CG1 ILE A   1      -7.428  12.166  19.686  0.00  0.00    +0.002 C 
ATOM     36  CD1 ILE A   1      -8.629  13.031  20.045  0.00  0.00    +0.000 C 
ENDBRANCH  33  35
ENDBRANCH  32  33
BRANCH  32  37
ATOM     37  N   ILE A   1      -4.924  11.121  18.221  0.00  0.00    -0.238 NA
ATOM     38  H   ILE A   1      -5.457  10.272  18.499  0.00  0.00    +0.142 HD
ENDBRANCH  32  37
ENDBRANCH  28  32
ENDBRANCH  27  29
ENDBRANCH  23  27
ENDBRANCH  22  24
ENDBRANCH   1  22
TORSDOF 16
REMARK  Name = ../refined-set-2016/1met/1met_pocket.pdb
REMARK  208 active torsions:
REMARK  status: ('A' for Active; 'I' for Inactive)
REMARK    1  A    between atoms: _1  and  _3
REMARK    2  A    between atoms: _3  and  _4
REMARK    3  A    between atoms: _3  and  _6
REMARK    4  A    between atoms: _6  and  _7
REMARK    5  A    between atoms: _7  and  _8
REMARK    6  A    between atoms: _8  and  _9
REMARK    7  A    between atoms: _18  and  _20
REMARK    8  A    between atoms: _20  and  _21
REMARK    9  A    between atoms: _20  and  _23
REMARK   10  A    between atoms: _23  and  _24
REMARK   11  A    between atoms: _27  and  _29
REMARK   12  A    between atoms: _29  and  _30
REMARK   13  A    between atoms: _29  and  _32
REMARK   14  A    between atoms: _32  and  _33
REMARK   15  A    between atoms: _36  and  _38
REMARK   16  A    between atoms: _38  and  _39
REMARK   17  A    between atoms: _38  and  _41
REMARK   18  A    between atoms: _41  and  _42
REMARK   19  A    between atoms: _45  and  _47
REMARK   20  A    between atoms: _47  and  _48
REMARK   21  A    between atoms: _47  and  _50
REMARK   22  A    between atoms: _50  and  _51
REMARK   23  A    between atoms: _54  and  _56
REMARK   24  A    between atoms: _56  and  _57
REMARK   25  A    between atoms: _59  and  _61
REMARK   26  A    between atoms: _61  and  _62
REMARK   27  A    between atoms: _65  and  _67
REMARK   28  A    between atoms: _67  and  _68
REMARK   29  A    between atoms: _67  and  _70
REMARK   30  A    between atoms: _70  and  _71
REMARK   31  A    between atoms: _74  and  _76
REMARK   32  A    between atoms: _76  and  _77
REMARK   33  A    between atoms: _76  and  _79
REMARK   34  A    between atoms: _79  and  _80
REMARK   35  A    between atoms: _83  and  _85
REMARK   36  A    between atoms: _85  and  _86
REMARK   37  A    between atoms: _85  and  _88
REMARK   38  A    between atoms: _88  and  _89
REMARK   39  A    between atoms: _92  and  _94
REMARK   40  A    between atoms: _94  and  _95
REMARK   41  A    between atoms: _94  and  _97
REMARK   42  A    between atoms: _100  and  _102
REMARK   43  A    between atoms: _102  and  _103
REMARK   44  A    between atoms: _102  and  _105
REMARK   45  A    between atoms: _105  and  _106
REMARK   46  A    between atoms: _109  and  _111
REMARK   47  A    between atoms: _111  and  _112
REMARK   48  A    between atoms: _114  and  _116
REMARK   49  A    between atoms: _116  and  _117
REMARK   50  A    between atoms: _119  and  _121
REMARK   51  A    between atoms: _121  and  _122
REMARK   52  A    between atoms: _121  and  _124
REMARK   53  A    between atoms: _124  and  _125
REMARK   54  A    between atoms: _128  and  _130
REMARK   55  A    between atoms: _130  and  _131
REMARK   56  A    between atoms: _133  and  _135
REMARK   57  A    between atoms: _135  and  _136
REMARK   58  A    between atoms: _138  and  _140
REMARK   59  A    between atoms: _140  and  _141
REMARK   60  A    between atoms: _140  and  _143
REMARK   61  A    between atoms: _143  and  _144
REMARK   62  A    between atoms: _147  and  _149
REMARK   63  A    between atoms: _149  and  _150
REMARK   64  A    between atoms: _149  and  _152
REMARK   65  A    between atoms: _152  and  _153
REMARK   66  A    between atoms: _157  and  _158
REMARK   67  A    between atoms: _163  and  _165
REMARK   68  A    between atoms: _165  and  _166
REMARK   69  A    between atoms: _165  and  _168
REMARK   70  A    between atoms: _168  and  _169
REMARK   71  A    between atoms: _173  and  _174
REMARK   72  A    between atoms: _179  and  _181
REMARK   73  A    between atoms: _181  and  _182
REMARK   74  A    between atoms: _181  and  _184
REMARK   75  A    between atoms: _184  and  _185
REMARK   76  A    between atoms: _191  and  _193
REMARK   77  A    between atoms: _193  and  _194
REMARK   78  A    between atoms: _193  and  _196
REMARK   79  A    between atoms: _196  and  _197
REMARK   80  A    between atoms: _202  and  _204
REMARK   81  A    between atoms: _204  and  _205
REMARK   82  A    between atoms: _204  and  _207
REMARK   83  A    between atoms: _207  and  _208
REMARK   84  A    between atoms: _211  and  _213
REMARK   85  A    between atoms: _213  and  _214
REMARK   86  A    between atoms: _213  and  _216
REMARK   87  A    between atoms: _216  and  _217
REMARK   88  A    between atoms: _220  and  _222
REMARK   89  A    between atoms: _222  and  _223
REMARK   90  A    between atoms: _225  and  _227
REMARK   91  A    between atoms: _227  and  _228
REMARK   92  A    between atoms: _227  and  _230
REMARK   93  A    between atoms: _230  and  _231
REMARK   94  A    between atoms: _231  and  _232
REMARK   95  A    between atoms: _232  and  _233
REMARK   96  A    between atoms: _242  and  _244
REMARK   97  A    between atoms: _244  and  _245
REMARK   98  A    between atoms: _244  and  _247
REMARK   99  A    between atoms: _247  and  _248
REMARK  100  A    between atoms: _253  and  _255
REMARK  101  A    between atoms: _255  and  _256
REMARK  102  A    between atoms: _255  and  _258
REMARK  103  A    between atoms: _258  and  _259
REMARK  104  A    between atoms: _259  and  _260
REMARK  105  A    between atoms: _260  and  _261
REMARK  106  A    between atoms: _270  and  _272
REMARK  107  A    between atoms: _272  and  _273
REMARK  108  A    between atoms: _272  and  _275
REMARK  109  A    between atoms: _275  and  _276
REMARK  110  A    between atoms: _279  and  _281
REMARK  111  A    between atoms: _281  and  _282
REMARK  112  A    between atoms: _281  and  _284
REMARK  113  A    between atoms: _284  and  _285
REMARK  114  A    between atoms: _288  and  _290
REMARK  115  A    between atoms: _290  and  _291
REMARK  116  A    between atoms: _290  and  _293
REMARK  117  A    between atoms: _293  and  _294
REMARK  118  A    between atoms: _297  and  _299
REMARK  119  A    between atoms: _299  and  _300
REMARK  120  A    between atoms: _299  and  _302
REMARK  121  A    between atoms: _302  and  _303
REMARK  122  A    between atoms: _306  and  _308
REMARK  123  A    between atoms: _308  and  _309
REMARK  124  A    between atoms: _311  and  _313
REMARK  125  A    between atoms: _313  and  _314
REMARK  126  A    between atoms: _317  and  _319
REMARK  127  A    between atoms: _319  and  _320
REMARK  128  A    between atoms: _319  and  _322
REMARK  129  A    between atoms: _322  and  _323
REMARK  130  A    between atoms: _326  and  _328
REMARK  131  A    between atoms: _328  and  _329
REMARK  132  A    between atoms: _328  and  _331
REMARK  133  A    between atoms: _331  and  _332
REMARK  134  A    between atoms: _335  and  _337
REMARK  135  A    between atoms: _337  and  _338
REMARK  136  A    between atoms: _337  and  _340
REMARK  137  A    between atoms: _340  and  _341
REMARK  138  A    between atoms: _344  and  _346
REMARK  139  A    between atoms: _346  and  _347
REMARK  140  A    between atoms: _346  and  _349
REMARK  141  A    between atoms: _352  and  _354
REMARK  142  A    between atoms: _354  and  _355
REMARK  143  A    between atoms: _354  and  _357
REMARK  144  A    between atoms: _357  and  _358
REMARK  145  A    between atoms: _358  and  _359
REMARK  146  A    between atoms: _359  and  _360
REMARK  147  A    between atoms: _360  and  _361
REMARK  148  A    between atoms: _365  and  _367
REMARK  149  A    between atoms: _367  and  _368
REMARK  150  A    between atoms: _367  and  _370
REMARK  151  A    between atoms: _370  and  _371
REMARK  152  A    between atoms: _374  and  _376
REMARK  153  A    between atoms: _376  and  _377
REMARK  154  A    between atoms: _379  and  _381
REMARK  155  A    between atoms: _381  and  _382
REMARK  156  A    between atoms: _384  and  _386
REMARK  157  A    between atoms: _386  and  _387
REMARK  158  A    between atoms: _386  and  _389
REMARK  159  A    between atoms: _389  and  _390
REMARK  160  A    between atoms: _393  and  _395
REMARK  161  A    between atoms: _395  and  _396
REMARK  162  A    between atoms: _398  and  _400
REMARK  163  A    between atoms: _400  and  _401
REMARK  164  A    between atoms: _403  and  _405
REMARK  165  A    between atoms: _405  and  _406
REMARK  166  A    between atoms: _405  and  _408
REMARK  167  A    between atoms: _408  and  _409
REMARK  168  A    between atoms: _412  and  _414
REMARK  169  A    between atoms: _414  and  _415
REMARK  170  A    between atoms: _414  and  _417
REMARK  171  A    between atoms: _420  and  _422
REMARK  172  A    between atoms: _422  and  _423
REMARK  173  A    between atoms: _422  and  _425
REMARK  174  A    between atoms: _425  and  _426
REMARK  175  A    between atoms: _430  and  _431
REMARK  176  A    between atoms: _436  and  _438
REMARK  177  A    between atoms: _438  and  _439
REMARK  178  A    between atoms: _438  and  _441
REMARK  179  A    between atoms: _441  and  _442
REMARK  180  A    between atoms: _446  and  _447
REMARK  181  A    between atoms: _452  and  _454
REMARK  182  A    between atoms: _454  and  _455
REMARK  183  A    between atoms: _454  and  _457
REMARK  184  A    between atoms: _457  and  _458
REMARK  185  A    between atoms: _464  and  _466
REMARK  186  A    between atoms: _466  and  _467
REMARK  187  A    between atoms: _466  and  _469
REMARK  188  A    between atoms: _469  and  _470
REMARK  189  A    between atoms: _475  and  _477
REMARK  190  A    between atoms: _477  and  _478
REMARK  191  A    between atoms: _477  and  _480
REMARK  192  A    between atoms: _480  and  _481
REMARK  193  A    between atoms: _484  and  _486
REMARK  194  A    between atoms: _486  and  _487
REMARK  195  A    between atoms: _486  and  _489
REMARK  196  A    between atoms: _489  and  _490
REMARK  197  A    between atoms: _493  and  _495
REMARK  198  A    between atoms: _495  and  _496
REMARK  199  A    between atoms: _498  and  _500
REMARK  200  A    between atoms: _500  and  _501
REMARK  201  A    between atoms: _500  and  _503
REMARK  202  A    between atoms: _503  and  _504
REMARK  203  A    between atoms: _504  and  _505
REMARK  204  A    between atoms: _505  and  _506
REMARK  205  A    between atoms: _515  and  _517
REMARK  206  A    between atoms: _517  and  _518
REMARK  207  A    between atoms: _517  and  _520
REMARK  208  A    between atoms: _520  and  _521
REMARK                            x       y       z     vdW  Elec       q    Type
REMARK                         _______ _______ _______ _____ _____    ______ ____
ROOT
ATOM      1  CA  ILE A   1      -6.226   7.239  20.611  0.00  0.00    +0.133 C 
ENDROOT
BRANCH   1   2
ATOM      2  N   ILE A   1      -5.334   8.201  21.254  0.00  0.00    -0.239 NA
ATOM      3  H   ILE A   1      -5.413   9.226  21.099  0.00  0.00    +0.142 HD
ENDBRANCH   1   2
BRANCH   1   4
ATOM      4  CB  ILE A   1      -7.711   7.388  21.020  0.00  0.00    +0.023 C 
ATOM      5  CG2 ILE A   1      -7.942   6.958  22.471  0.00  0.00    +0.002 C 
BRANCH   4   6
ATOM      6  CG1 ILE A   1      -8.292   8.771  20.721  0.00  0.00    +0.002 C 
ATOM      7  CD1 ILE A   1      -9.811   8.822  20.798  0.00  0.00    +0.000 C 
ENDBRANCH   4   6
ENDBRANCH   1   4
BRANCH   1   8
ATOM      8  C   ILE A   1      -6.128   7.343  19.115  0.00  0.00    +0.224 C 
ATOM      9  O   ILE A   1      -5.770   8.365  18.544  0.00  0.00    -0.287 OA
ENDBRANCH   1   8
TORSDOF 4
REMARK  Name = ../refined-set-2016/1met/1met_pocket.pdb
REMARK  208 active torsions:
REMARK  status: ('A' for Active; 'I' for Inactive)
REMARK    1  A    between atoms: _1  and  _3
REMARK    2  A    between atoms: _3  and  _4
REMARK    3  A    between atoms: _3  and  _6
REMARK    4  A    between atoms: _6  and  _7
REMARK    5  A    between atoms: _7  and  _8
REMARK    6  A    between atoms: _8  and  _9
REMARK    7  A    between atoms: _18  and  _20
REMARK    8  A    between atoms: _20  and  _21
REMARK    9  A    between atoms: _20  and  _23
REMARK   10  A    between atoms: _23  and  _24
REMARK   11  A    between atoms: _27  and  _29
REMARK   12  A    between atoms: _29  and  _30
REMARK   13  A    between atoms: _29  and  _32
REMARK   14  A    between atoms: _32  and  _33
REMARK   15  A    between atoms: _36  and  _38
REMARK   16  A    between atoms: _38  and  _39
REMARK   17  A    between atoms: _38  and  _41
REMARK   18  A    between atoms: _41  and  _42
REMARK   19  A    between atoms: _45  and  _47
REMARK   20  A    between atoms: _47  and  _48
REMARK   21  A    between atoms: _47  and  _50
REMARK   22  A    between atoms: _50  and  _51
REMARK   23  A    between atoms: _54  and  _56
REMARK   24  A    between atoms: _56  and  _57
REMARK   25  A    between atoms: _59  and  _61
REMARK   26  A    between atoms: _61  and  _62
REMARK   27  A    between atoms: _65  and  _67
REMARK   28  A    between atoms: _67  and  _68
REMARK   29  A    between atoms: _67  and  _70
REMARK   30  A    between atoms: _70  and  _71
REMARK   31  A    between atoms: _74  and  _76
REMARK   32  A    between atoms: _76  and  _77
REMARK   33  A    between atoms: _76  and  _79
REMARK   34  A    between atoms: _79  and  _80
REMARK   35  A    between atoms: _83  and  _85
REMARK   36  A    between atoms: _85  and  _86
REMARK   37  A    between atoms: _85  and  _88
REMARK   38  A    between atoms: _88  and  _89
REMARK   39  A    between atoms: _92  and  _94
REMARK   40  A    between atoms: _94  and  _95
REMARK   41  A    between atoms: _94  and  _97
REMARK   42  A    between atoms: _100  and  _102
REMARK   43  A    between atoms: _102  and  _103
REMARK   44  A    between atoms: _102  and  _105
REMARK   45  A    between atoms: _105  and  _106
REMARK   46  A    between atoms: _109  and  _111
REMARK   47  A    between atoms: _111  and  _112
REMARK   48  A    between atoms: _114  and  _116
REMARK   49  A    between atoms: _116  and  _117
REMARK   50  A    between atoms: _119  and  _121
REMARK   51  A    between atoms: _121  and  _122
REMARK   52  A    between atoms: _121  and  _124
REMARK   53  A    between atoms: _124  and  _125
REMARK   54  A    between atoms: _128  and  _130
REMARK   55  A    between atoms: _130  and  _131
REMARK   56  A    between atoms: _133  and  _135
REMARK   57  A    between atoms: _135  and  _136
REMARK   58  A    between atoms: _138  and  _140
REMARK   59  A    between atoms: _140  and  _141
REMARK   60  A    between atoms: _140  and  _143
REMARK   61  A    between atoms: _143  and  _144
REMARK   62  A    between atoms: _147  and  _149
REMARK   63  A    between atoms: _149  and  _150
REMARK   64  A    between atoms: _149  and  _152
REMARK   65  A    between atoms: _152  and  _153
REMARK   66  A    between atoms: _157  and  _158
REMARK   67  A    between atoms: _163  and  _165
REMARK   68  A    between atoms: _165  and  _166
REMARK   69  A    between atoms: _165  and  _168
REMARK   70  A    between atoms: _168  and  _169
REMARK   71  A    between atoms: _173  and  _174
REMARK   72  A    between atoms: _179  and  _181
REMARK   73  A    between atoms: _181  and  _182
REMARK   74  A    between atoms: _181  and  _184
REMARK   75  A    between atoms: _184  and  _185
REMARK   76  A    between atoms: _191  and  _193
REMARK   77  A    between atoms: _193  and  _194
REMARK   78  A    between atoms: _193  and  _196
REMARK   79  A    between atoms: _196  and  _197
REMARK   80  A    between atoms: _202  and  _204
REMARK   81  A    between atoms: _204  and  _205
REMARK   82  A    between atoms: _204  and  _207
REMARK   83  A    between atoms: _207  and  _208
REMARK   84  A    between atoms: _211  and  _213
REMARK   85  A    between atoms: _213  and  _214
REMARK   86  A    between atoms: _213  and  _216
REMARK   87  A    between atoms: _216  and  _217
REMARK   88  A    between atoms: _220  and  _222
REMARK   89  A    between atoms: _222  and  _223
REMARK   90  A    between atoms: _225  and  _227
REMARK   91  A    between atoms: _227  and  _228
REMARK   92  A    between atoms: _227  and  _230
REMARK   93  A    between atoms: _230  and  _231
REMARK   94  A    between atoms: _231  and  _232
REMARK   95  A    between atoms: _232  and  _233
REMARK   96  A    between atoms: _242  and  _244
REMARK   97  A    between atoms: _244  and  _245
REMARK   98  A    between atoms: _244  and  _247
REMARK   99  A    between atoms: _247  and  _248
REMARK  100  A    between atoms: _253  and  _255
REMARK  101  A    between atoms: _255  and  _256
REMARK  102  A    between atoms: _255  and  _258
REMARK  103  A    between atoms: _258  and  _259
REMARK  104  A    between atoms: _259  and  _260
REMARK  105  A    between atoms: _260  and  _261
REMARK  106  A    between atoms: _270  and  _272
REMARK  107  A    between atoms: _272  and  _273
REMARK  108  A    between atoms: _272  and  _275
REMARK  109  A    between atoms: _275  and  _276
REMARK  110  A    between atoms: _279  and  _281
REMARK  111  A    between atoms: _281  and  _282
REMARK  112  A    between atoms: _281  and  _284
REMARK  113  A    between atoms: _284  and  _285
REMARK  114  A    between atoms: _288  and  _290
REMARK  115  A    between atoms: _290  and  _291
REMARK  116  A    between atoms: _290  and  _293
REMARK  117  A    between atoms: _293  and  _294
REMARK  118  A    between atoms: _297  and  _299
REMARK  119  A    between atoms: _299  and  _300
REMARK  120  A    between atoms: _299  and  _302
REMARK  121  A    between atoms: _302  and  _303
REMARK  122  A    between atoms: _306  and  _308
REMARK  123  A    between atoms: _308  and  _309
REMARK  124  A    between atoms: _311  and  _313
REMARK  125  A    between atoms: _313  and  _314
REMARK  126  A    between atoms: _317  and  _319
REMARK  127  A    between atoms: _319  and  _320
REMARK  128  A    between atoms: _319  and  _322
REMARK  129  A    between atoms: _322  and  _323
REMARK  130  A    between atoms: _326  and  _328
REMARK  131  A    between atoms: _328  and  _329
REMARK  132  A    between atoms: _328  and  _331
REMARK  133  A    between atoms: _331  and  _332
REMARK  134  A    between atoms: _335  and  _337
REMARK  135  A    between atoms: _337  and  _338
REMARK  136  A    between atoms: _337  and  _340
REMARK  137  A    between atoms: _340  and  _341
REMARK  138  A    between atoms: _344  and  _346
REMARK  139  A    between atoms: _346  and  _347
REMARK  140  A    between atoms: _346  and  _349
REMARK  141  A    between atoms: _352  and  _354
REMARK  142  A    between atoms: _354  and  _355
REMARK  143  A    between atoms: _354  and  _357
REMARK  144  A    between atoms: _357  and  _358
REMARK  145  A    between atoms: _358  and  _359
REMARK  146  A    between atoms: _359  and  _360
REMARK  147  A    between atoms: _360  and  _361
REMARK  148  A    between atoms: _365  and  _367
REMARK  149  A    between atoms: _367  and  _368
REMARK  150  A    between atoms: _367  and  _370
REMARK  151  A    between atoms: _370  and  _371
REMARK  152  A    between atoms: _374  and  _376
REMARK  153  A    between atoms: _376  and  _377
REMARK  154  A    between atoms: _379  and  _381
REMARK  155  A    between atoms: _381  and  _382
REMARK  156  A    between atoms: _384  and  _386
REMARK  157  A    between atoms: _386  and  _387
REMARK  158  A    between atoms: _386  and  _389
REMARK  159  A    between atoms: _389  and  _390
REMARK  160  A    between atoms: _393  and  _395
REMARK  161  A    between atoms: _395  and  _396
REMARK  162  A    between atoms: _398  and  _400
REMARK  163  A    between atoms: _400  and  _401
REMARK  164  A    between atoms: _403  and  _405
REMARK  165  A    between atoms: _405  and  _406
REMARK  166  A    between atoms: _405  and  _408
REMARK  167  A    between atoms: _408  and  _409
REMARK  168  A    between atoms: _412  and  _414
REMARK  169  A    between atoms: _414  and  _415
REMARK  170  A    between atoms: _414  and  _417
REMARK  171  A    between atoms: _420  and  _422
REMARK  172  A    between atoms: _422  and  _423
REMARK  173  A    between atoms: _422  and  _425
REMARK  174  A    between atoms: _425  and  _426
REMARK  175  A    between atoms: _430  and  _431
REMARK  176  A    between atoms: _436  and  _438
REMARK  177  A    between atoms: _438  and  _439
REMARK  178  A    between atoms: _438  and  _441
REMARK  179  A    between atoms: _441  and  _442
REMARK  180  A    between atoms: _446  and  _447
REMARK  181  A    between atoms: _452  and  _454
REMARK  182  A    between atoms: _454  and  _455
REMARK  183  A    between atoms: _454  and  _457
REMARK  184  A    between atoms: _457  and  _458
REMARK  185  A    between atoms: _464  and  _466
REMARK  186  A    between atoms: _466  and  _467
REMARK  187  A    between atoms: _466  and  _469
REMARK  188  A    between atoms: _469  and  _470
REMARK  189  A    between atoms: _475  and  _477
REMARK  190  A    between atoms: _477  and  _478
REMARK  191  A    between atoms: _477  and  _480
REMARK  192  A    between atoms: _480  and  _481
REMARK  193  A    between atoms: _484  and  _486
REMARK  194  A    between atoms: _486  and  _487
REMARK  195  A    between atoms: _486  and  _489
REMARK  196  A    between atoms: _489  and  _490
REMARK  197  A    between atoms: _493  and  _495
REMARK  198  A    between atoms: _495  and  _496
REMARK  199  A    between atoms: _498  and  _500
REMARK  200  A    between atoms: _500  and  _501
REMARK  201  A    between atoms: _500  and  _503
REMARK  202  A    between atoms: _503  and  _504
REMARK  203  A    between atoms: _504  and  _505
REMARK  204  A    between atoms: _505  and  _506
REMARK  205  A    between atoms: _515  and  _517
REMARK  206  A    between atoms: _517  and  _518
REMARK  207  A    between atoms: _517  and  _520
REMARK  208  A    between atoms: _520  and  _521
REMARK                            x       y       z     vdW  Elec       q    Type
REMARK                         _______ _______ _______ _____ _____    ______ ____
ROOT
ATOM      1  CA  VAL A   1      -9.439   8.200  15.539  0.00  0.00    +0.133 C 
ENDROOT
BRANCH   1   2
ATOM      2  CB  VAL A   1      -9.292   9.600  16.184  0.00  0.00    +0.023 C 
ATOM      3  CG2 VAL A   1     -10.379   9.882  17.197  0.00  0.00    +0.002 C 
ATOM      4  CG1 VAL A   1      -9.059  10.755  15.224  0.00  0.00    +0.002 C 
ENDBRANCH   1   2
BRANCH   1   5
ATOM      5  N   VAL A   1      -8.148   7.566  15.753  0.00  0.00    -0.239 NA
ATOM      6  H   VAL A   1      -7.325   7.865  15.192  0.00  0.00    +0.142 HD
ENDBRANCH   1   5
BRANCH   1   7
ATOM      7  C   VAL A   1      -9.670   8.231  14.050  0.00  0.00    +0.224 C 
ATOM      8  O   VAL A   1      -8.728   8.255  13.281  0.00  0.00    -0.287 OA
ENDBRANCH   1   7
TORSDOF 3
REMARK  Name = ../refined-set-2016/1met/1met_pocket.pdb
REMARK  208 active torsions:
REMARK  status: ('A' for Active; 'I' for Inactive)
REMARK    1  A    between atoms: _1  and  _3
REMARK    2  A    between atoms: _3  and  _4
REMARK    3  A    between atoms: _3  and  _6
REMARK    4  A    between atoms: _6  and  _7
REMARK    5  A    between atoms: _7  and  _8
REMARK    6  A    between atoms: _8  and  _9
REMARK    7  A    between atoms: _18  and  _20
REMARK    8  A    between atoms: _20  and  _21
REMARK    9  A    between atoms: _20  and  _23
REMARK   10  A    between atoms: _23  and  _24
REMARK   11  A    between atoms: _27  and  _29
REMARK   12  A    between atoms: _29  and  _30
REMARK   13  A    between atoms: _29  and  _32
REMARK   14  A    between atoms: _32  and  _33
REMARK   15  A    between atoms: _36  and  _38
REMARK   16  A    between atoms: _38  and  _39
REMARK   17  A    between atoms: _38  and  _41
REMARK   18  A    between atoms: _41  and  _42
REMARK   19  A    between atoms: _45  and  _47
REMARK   20  A    between atoms: _47  and  _48
REMARK   21  A    between atoms: _47  and  _50
REMARK   22  A    between atoms: _50  and  _51
REMARK   23  A    between atoms: _54  and  _56
REMARK   24  A    between atoms: _56  and  _57
REMARK   25  A    between atoms: _59  and  _61
REMARK   26  A    between atoms: _61  and  _62
REMARK   27  A    between atoms: _65  and  _67
REMARK   28  A    between atoms: _67  and  _68
REMARK   29  A    between atoms: _67  and  _70
REMARK   30  A    between atoms: _70  and  _71
REMARK   31  A    between atoms: _74  and  _76
REMARK   32  A    between atoms: _76  and  _77
REMARK   33  A    between atoms: _76  and  _79
REMARK   34  A    between atoms: _79  and  _80
REMARK   35  A    between atoms: _83  and  _85
REMARK   36  A    between atoms: _85  and  _86
REMARK   37  A    between atoms: _85  and  _88
REMARK   38  A    between atoms: _88  and  _89
REMARK   39  A    between atoms: _92  and  _94
REMARK   40  A    between atoms: _94  and  _95
REMARK   41  A    between atoms: _94  and  _97
REMARK   42  A    between atoms: _100  and  _102
REMARK   43  A    between atoms: _102  and  _103
REMARK   44  A    between atoms: _102  and  _105
REMARK   45  A    between atoms: _105  and  _106
REMARK   46  A    between atoms: _109  and  _111
REMARK   47  A    between atoms: _111  and  _112
REMARK   48  A    between atoms: _114  and  _116
REMARK   49  A    between atoms: _116  and  _117
REMARK   50  A    between atoms: _119  and  _121
REMARK   51  A    between atoms: _121  and  _122
REMARK   52  A    between atoms: _121  and  _124
REMARK   53  A    between atoms: _124  and  _125
REMARK   54  A    between atoms: _128  and  _130
REMARK   55  A    between atoms: _130  and  _131
REMARK   56  A    between atoms: _133  and  _135
REMARK   57  A    between atoms: _135  and  _136
REMARK   58  A    between atoms: _138  and  _140
REMARK   59  A    between atoms: _140  and  _141
REMARK   60  A    between atoms: _140  and  _143
REMARK   61  A    between atoms: _143  and  _144
REMARK   62  A    between atoms: _147  and  _149
REMARK   63  A    between atoms: _149  and  _150
REMARK   64  A    between atoms: _149  and  _152
REMARK   65  A    between atoms: _152  and  _153
REMARK   66  A    between atoms: _157  and  _158
REMARK   67  A    between atoms: _163  and  _165
REMARK   68  A    between atoms: _165  and  _166
REMARK   69  A    between atoms: _165  and  _168
REMARK   70  A    between atoms: _168  and  _169
REMARK   71  A    between atoms: _173  and  _174
REMARK   72  A    between atoms: _179  and  _181
REMARK   73  A    between atoms: _181  and  _182
REMARK   74  A    between atoms: _181  and  _184
REMARK   75  A    between atoms: _184  and  _185
REMARK   76  A    between atoms: _191  and  _193
REMARK   77  A    between atoms: _193  and  _194
REMARK   78  A    between atoms: _193  and  _196
REMARK   79  A    between atoms: _196  and  _197
REMARK   80  A    between atoms: _202  and  _204
REMARK   81  A    between atoms: _204  and  _205
REMARK   82  A    between atoms: _204  and  _207
REMARK   83  A    between atoms: _207  and  _208
REMARK   84  A    between atoms: _211  and  _213
REMARK   85  A    between atoms: _213  and  _214
REMARK   86  A    between atoms: _213  and  _216
REMARK   87  A    between atoms: _216  and  _217
REMARK   88  A    between atoms: _220  and  _222
REMARK   89  A    between atoms: _222  and  _223
REMARK   90  A    between atoms: _225  and  _227
REMARK   91  A    between atoms: _227  and  _228
REMARK   92  A    between atoms: _227  and  _230
REMARK   93  A    between atoms: _230  and  _231
REMARK   94  A    between atoms: _231  and  _232
REMARK   95  A    between atoms: _232  and  _233
REMARK   96  A    between atoms: _242  and  _244
REMARK   97  A    between atoms: _244  and  _245
REMARK   98  A    between atoms: _244  and  _247
REMARK   99  A    between atoms: _247  and  _248
REMARK  100  A    between atoms: _253  and  _255
REMARK  101  A    between atoms: _255  and  _256
REMARK  102  A    between atoms: _255  and  _258
REMARK  103  A    between atoms: _258  and  _259
REMARK  104  A    between atoms: _259  and  _260
REMARK  105  A    between atoms: _260  and  _261
REMARK  106  A    between atoms: _270  and  _272
REMARK  107  A    between atoms: _272  and  _273
REMARK  108  A    between atoms: _272  and  _275
REMARK  109  A    between atoms: _275  and  _276
REMARK  110  A    between atoms: _279  and  _281
REMARK  111  A    between atoms: _281  and  _282
REMARK  112  A    between atoms: _281  and  _284
REMARK  113  A    between atoms: _284  and  _285
REMARK  114  A    between atoms: _288  and  _290
REMARK  115  A    between atoms: _290  and  _291
REMARK  116  A    between atoms: _290  and  _293
REMARK  117  A    between atoms: _293  and  _294
REMARK  118  A    between atoms: _297  and  _299
REMARK  119  A    between atoms: _299  and  _300
REMARK  120  A    between atoms: _299  and  _302
REMARK  121  A    between atoms: _302  and  _303
REMARK  122  A    between atoms: _306  and  _308
REMARK  123  A    between atoms: _308  and  _309
REMARK  124  A    between atoms: _311  and  _313
REMARK  125  A    between atoms: _313  and  _314
REMARK  126  A    between atoms: _317  and  _319
REMARK  127  A    between atoms: _319  and  _320
REMARK  128  A    between atoms: _319  and  _322
REMARK  129  A    between atoms: _322  and  _323
REMARK  130  A    between atoms: _326  and  _328
REMARK  131  A    between atoms: _328  and  _329
REMARK  132  A    between atoms: _328  and  _331
REMARK  133  A    between atoms: _331  and  _332
REMARK  134  A    between atoms: _335  and  _337
REMARK  135  A    between atoms: _337  and  _338
REMARK  136  A    between atoms: _337  and  _340
REMARK  137  A    between atoms: _340  and  _341
REMARK  138  A    between atoms: _344  and  _346
REMARK  139  A    between atoms: _346  and  _347
REMARK  140  A    between atoms: _346  and  _349
REMARK  141  A    between atoms: _352  and  _354
REMARK  142  A    between atoms: _354  and  _355
REMARK  143  A    between atoms: _354  and  _357
REMARK  144  A    between atoms: _357  and  _358
REMARK  145  A    between atoms: _358  and  _359
REMARK  146  A    between atoms: _359  and  _360
REMARK  147  A    between atoms: _360  and  _361
REMARK  148  A    between atoms: _365  and  _367
REMARK  149  A    between atoms: _367  and  _368
REMARK  150  A    between atoms: _367  and  _370
REMARK  151  A    between atoms: _370  and  _371
REMARK  152  A    between atoms: _374  and  _376
REMARK  153  A    between atoms: _376  and  _377
REMARK  154  A    between atoms: _379  and  _381
REMARK  155  A    between atoms: _381  and  _382
REMARK  156  A    between atoms: _384  and  _386
REMARK  157  A    between atoms: _386  and  _387
REMARK  158  A    between atoms: _386  and  _389
REMARK  159  A    between atoms: _389  and  _390
REMARK  160  A    between atoms: _393  and  _395
REMARK  161  A    between atoms: _395  and  _396
REMARK  162  A    between atoms: _398  and  _400
REMARK  163  A    between atoms: _400  and  _401
REMARK  164  A    between atoms: _403  and  _405
REMARK  165  A    between atoms: _405  and  _406
REMARK  166  A    between atoms: _405  and  _408
REMARK  167  A    between atoms: _408  and  _409
REMARK  168  A    between atoms: _412  and  _414
REMARK  169  A    between atoms: _414  and  _415
REMARK  170  A    between atoms: _414  and  _417
REMARK  171  A    between atoms: _420  and  _422
REMARK  172  A    between atoms: _422  and  _423
REMARK  173  A    between atoms: _422  and  _425
REMARK  174  A    between atoms: _425  and  _426
REMARK  175  A    between atoms: _430  and  _431
REMARK  176  A    between atoms: _436  and  _438
REMARK  177  A    between atoms: _438  and  _439
REMARK  178  A    between atoms: _438  and  _441
REMARK  179  A    between atoms: _441  and  _442
REMARK  180  A    between atoms: _446  and  _447
REMARK  181  A    between atoms: _452  and  _454
REMARK  182  A    between atoms: _454  and  _455
REMARK  183  A    between atoms: _454  and  _457
REMARK  184  A    between atoms: _457  and  _458
REMARK  185  A    between atoms: _464  and  _466
REMARK  186  A    between atoms: _466  and  _467
REMARK  187  A    between atoms: _466  and  _469
REMARK  188  A    between atoms: _469  and  _470
REMARK  189  A    between atoms: _475  and  _477
REMARK  190  A    between atoms: _477  and  _478
REMARK  191  A    between atoms: _477  and  _480
REMARK  192  A    between atoms: _480  and  _481
REMARK  193  A    between atoms: _484  and  _486
REMARK  194  A    between atoms: _486  and  _487
REMARK  195  A    between atoms: _486  and  _489
REMARK  196  A    between atoms: _489  and  _490
REMARK  197  A    between atoms: _493  and  _495
REMARK  198  A    between atoms: _495  and  _496
REMARK  199  A    between atoms: _498  and  _500
REMARK  200  A    between atoms: _500  and  _501
REMARK  201  A    between atoms: _500  and  _503
REMARK  202  A    between atoms: _503  and  _504
REMARK  203  A    between atoms: _504  and  _505
REMARK  204  A    between atoms: _505  and  _506
REMARK  205  A    between atoms: _515  and  _517
REMARK  206  A    between atoms: _517  and  _518
REMARK  207  A    between atoms: _517  and  _520
REMARK  208  A    between atoms: _520  and  _521
REMARK                            x       y       z     vdW  Elec       q    Type
REMARK                         _______ _______ _______ _____ _____    ______ ____
ROOT
ATOM      1  CA  LEU A   1     -13.154  12.651  14.741  0.00  0.00    +0.133 C 
ENDROOT
BRANCH   1   2
ATOM      2  N   LEU A   1     -13.962  13.847  14.606  0.00  0.00    -0.239 NA
ATOM      3  H   LEU A   1     -14.163  14.433  15.441  0.00  0.00    +0.142 HD
ENDBRANCH   1   2
BRANCH   1   4
ATOM      4  C   LEU A   1     -14.003  11.658  15.478  0.00  0.00    +0.224 C 
ATOM      5  O   LEU A   1     -14.589  12.018  16.484  0.00  0.00    -0.287 OA
ENDBRANCH   1   4
BRANCH   1   6
ATOM      6  CB  LEU A   1     -11.946  12.933  15.642  0.00  0.00    +0.025 C 
BRANCH   6   7
ATOM      7  CG  LEU A   1     -11.083  14.139  15.285  0.00  0.00    +0.002 C 
ATOM      8  CD2 LEU A   1     -10.071  14.396  16.410  0.00  0.00    +0.000 C 
ATOM      9  CD1 LEU A   1     -10.447  13.974  13.908  0.00  0.00    +0.000 C 
ENDBRANCH   6   7
ENDBRANCH   1   6
TORSDOF 4
REMARK  Name = ../refined-set-2016/1met/1met_pocket.pdb
REMARK  208 active torsions:
REMARK  status: ('A' for Active; 'I' for Inactive)
REMARK    1  A    between atoms: _1  and  _3
REMARK    2  A    between atoms: _3  and  _4
REMARK    3  A    between atoms: _3  and  _6
REMARK    4  A    between atoms: _6  and  _7
REMARK    5  A    between atoms: _7  and  _8
REMARK    6  A    between atoms: _8  and  _9
REMARK    7  A    between atoms: _18  and  _20
REMARK    8  A    between atoms: _20  and  _21
REMARK    9  A    between atoms: _20  and  _23
REMARK   10  A    between atoms: _23  and  _24
REMARK   11  A    between atoms: _27  and  _29
REMARK   12  A    between atoms: _29  and  _30
REMARK   13  A    between atoms: _29  and  _32
REMARK   14  A    between atoms: _32  and  _33
REMARK   15  A    between atoms: _36  and  _38
REMARK   16  A    between atoms: _38  and  _39
REMARK   17  A    between atoms: _38  and  _41
REMARK   18  A    between atoms: _41  and  _42
REMARK   19  A    between atoms: _45  and  _47
REMARK   20  A    between atoms: _47  and  _48
REMARK   21  A    between atoms: _47  and  _50
REMARK   22  A    between atoms: _50  and  _51
REMARK   23  A    between atoms: _54  and  _56
REMARK   24  A    between atoms: _56  and  _57
REMARK   25  A    between atoms: _59  and  _61
REMARK   26  A    between atoms: _61  and  _62
REMARK   27  A    between atoms: _65  and  _67
REMARK   28  A    between atoms: _67  and  _68
REMARK   29  A    between atoms: _67  and  _70
REMARK   30  A    between atoms: _70  and  _71
REMARK   31  A    between atoms: _74  and  _76
REMARK   32  A    between atoms: _76  and  _77
REMARK   33  A    between atoms: _76  and  _79
REMARK   34  A    between atoms: _79  and  _80
REMARK   35  A    between atoms: _83  and  _85
REMARK   36  A    between atoms: _85  and  _86
REMARK   37  A    between atoms: _85  and  _88
REMARK   38  A    between atoms: _88  and  _89
REMARK   39  A    between atoms: _92  and  _94
REMARK   40  A    between atoms: _94  and  _95
REMARK   41  A    between atoms: _94  and  _97
REMARK   42  A    between atoms: _100  and  _102
REMARK   43  A    between atoms: _102  and  _103
REMARK   44  A    between atoms: _102  and  _105
REMARK   45  A    between atoms: _105  and  _106
REMARK   46  A    between atoms: _109  and  _111
REMARK   47  A    between atoms: _111  and  _112
REMARK   48  A    between atoms: _114  and  _116
REMARK   49  A    between atoms: _116  and  _117
REMARK   50  A    between atoms: _119  and  _121
REMARK   51  A    between atoms: _121  and  _122
REMARK   52  A    between atoms: _121  and  _124
REMARK   53  A    between atoms: _124  and  _125
REMARK   54  A    between atoms: _128  and  _130
REMARK   55  A    between atoms: _130  and  _131
REMARK   56  A    between atoms: _133  and  _135
REMARK   57  A    between atoms: _135  and  _136
REMARK   58  A    between atoms: _138  and  _140
REMARK   59  A    between atoms: _140  and  _141
REMARK   60  A    between atoms: _140  and  _143
REMARK   61  A    between atoms: _143  and  _144
REMARK   62  A    between atoms: _147  and  _149
REMARK   63  A    between atoms: _149  and  _150
REMARK   64  A    between atoms: _149  and  _152
REMARK   65  A    between atoms: _152  and  _153
REMARK   66  A    between atoms: _157  and  _158
REMARK   67  A    between atoms: _163  and  _165
REMARK   68  A    between atoms: _165  and  _166
REMARK   69  A    between atoms: _165  and  _168
REMARK   70  A    between atoms: _168  and  _169
REMARK   71  A    between atoms: _173  and  _174
REMARK   72  A    between atoms: _179  and  _181
REMARK   73  A    between atoms: _181  and  _182
REMARK   74  A    between atoms: _181  and  _184
REMARK   75  A    between atoms: _184  and  _185
REMARK   76  A    between atoms: _191  and  _193
REMARK   77  A    between atoms: _193  and  _194
REMARK   78  A    between atoms: _193  and  _196
REMARK   79  A    between atoms: _196  and  _197
REMARK   80  A    between atoms: _202  and  _204
REMARK   81  A    between atoms: _204  and  _205
REMARK   82  A    between atoms: _204  and  _207
REMARK   83  A    between atoms: _207  and  _208
REMARK   84  A    between atoms: _211  and  _213
REMARK   85  A    between atoms: _213  and  _214
REMARK   86  A    between atoms: _213  and  _216
REMARK   87  A    between atoms: _216  and  _217
REMARK   88  A    between atoms: _220  and  _222
REMARK   89  A    between atoms: _222  and  _223
REMARK   90  A    between atoms: _225  and  _227
REMARK   91  A    between atoms: _227  and  _228
REMARK   92  A    between atoms: _227  and  _230
REMARK   93  A    between atoms: _230  and  _231
REMARK   94  A    between atoms: _231  and  _232
REMARK   95  A    between atoms: _232  and  _233
REMARK   96  A    between atoms: _242  and  _244
REMARK   97  A    between atoms: _244  and  _245
REMARK   98  A    between atoms: _244  and  _247
REMARK   99  A    between atoms: _247  and  _248
REMARK  100  A    between atoms: _253  and  _255
REMARK  101  A    between atoms: _255  and  _256
REMARK  102  A    between atoms: _255  and  _258
REMARK  103  A    between atoms: _258  and  _259
REMARK  104  A    between atoms: _259  and  _260
REMARK  105  A    between atoms: _260  and  _261
REMARK  106  A    between atoms: _270  and  _272
REMARK  107  A    between atoms: _272  and  _273
REMARK  108  A    between atoms: _272  and  _275
REMARK  109  A    between atoms: _275  and  _276
REMARK  110  A    between atoms: _279  and  _281
REMARK  111  A    between atoms: _281  and  _282
REMARK  112  A    between atoms: _281  and  _284
REMARK  113  A    between atoms: _284  and  _285
REMARK  114  A    between atoms: _288  and  _290
REMARK  115  A    between atoms: _290  and  _291
REMARK  116  A    between atoms: _290  and  _293
REMARK  117  A    between atoms: _293  and  _294
REMARK  118  A    between atoms: _297  and  _299
REMARK  119  A    between atoms: _299  and  _300
REMARK  120  A    between atoms: _299  and  _302
REMARK  121  A    between atoms: _302  and  _303
REMARK  122  A    between atoms: _306  and  _308
REMARK  123  A    between atoms: _308  and  _309
REMARK  124  A    between atoms: _311  and  _313
REMARK  125  A    between atoms: _313  and  _314
REMARK  126  A    between atoms: _317  and  _319
REMARK  127  A    between atoms: _319  and  _320
REMARK  128  A    between atoms: _319  and  _322
REMARK  129  A    between atoms: _322  and  _323
REMARK  130  A    between atoms: _326  and  _328
REMARK  131  A    between atoms: _328  and  _329
REMARK  132  A    between atoms: _328  and  _331
REMARK  133  A    between atoms: _331  and  _332
REMARK  134  A    between atoms: _335  and  _337
REMARK  135  A    between atoms: _337  and  _338
REMARK  136  A    between atoms: _337  and  _340
REMARK  137  A    between atoms: _340  and  _341
REMARK  138  A    between atoms: _344  and  _346
REMARK  139  A    between atoms: _346  and  _347
REMARK  140  A    between atoms: _346  and  _349
REMARK  141  A    between atoms: _352  and  _354
REMARK  142  A    between atoms: _354  and  _355
REMARK  143  A    between atoms: _354  and  _357
REMARK  144  A    between atoms: _357  and  _358
REMARK  145  A    between atoms: _358  and  _359
REMARK  146  A    between atoms: _359  and  _360
REMARK  147  A    between atoms: _360  and  _361
REMARK  148  A    between atoms: _365  and  _367
REMARK  149  A    between atoms: _367  and  _368
REMARK  150  A    between atoms: _367  and  _370
REMARK  151  A    between atoms: _370  and  _371
REMARK  152  A    between atoms: _374  and  _376
REMARK  153  A    between atoms: _376  and  _377
REMARK  154  A    between atoms: _379  and  _381
REMARK  155  A    between atoms: _381  and  _382
REMARK  156  A    between atoms: _384  and  _386
REMARK  157  A    between atoms: _386  and  _387
REMARK  158  A    between atoms: _386  and  _389
REMARK  159  A    between atoms: _389  and  _390
REMARK  160  A    between atoms: _393  and  _395
REMARK  161  A    between atoms: _395  and  _396
REMARK  162  A    between atoms: _398  and  _400
REMARK  163  A    between atoms: _400  and  _401
REMARK  164  A    between atoms: _403  and  _405
REMARK  165  A    between atoms: _405  and  _406
REMARK  166  A    between atoms: _405  and  _408
REMARK  167  A    between atoms: _408  and  _409
REMARK  168  A    between atoms: _412  and  _414
REMARK  169  A    between atoms: _414  and  _415
REMARK  170  A    between atoms: _414  and  _417
REMARK  171  A    between atoms: _420  and  _422
REMARK  172  A    between atoms: _422  and  _423
REMARK  173  A    between atoms: _422  and  _425
REMARK  174  A    between atoms: _425  and  _426
REMARK  175  A    between atoms: _430  and  _431
REMARK  176  A    between atoms: _436  and  _438
REMARK  177  A    between atoms: _438  and  _439
REMARK  178  A    between atoms: _438  and  _441
REMARK  179  A    between atoms: _441  and  _442
REMARK  180  A    between atoms: _446  and  _447
REMARK  181  A    between atoms: _452  and  _454
REMARK  182  A    between atoms: _454  and  _455
REMARK  183  A    between atoms: _454  and  _457
REMARK  184  A    between atoms: _457  and  _458
REMARK  185  A    between atoms: _464  and  _466
REMARK  186  A    between atoms: _466  and  _467
REMARK  187  A    between atoms: _466  and  _469
REMARK  188  A    between atoms: _469  and  _470
REMARK  189  A    between atoms: _475  and  _477
REMARK  190  A    between atoms: _477  and  _478
REMARK  191  A    between atoms: _477  and  _480
REMARK  192  A    between atoms: _480  and  _481
REMARK  193  A    between atoms: _484  and  _486
REMARK  194  A    between atoms: _486  and  _487
REMARK  195  A    between atoms: _486  and  _489
REMARK  196  A    between atoms: _489  and  _490
REMARK  197  A    between atoms: _493  and  _495
REMARK  198  A    between atoms: _495  and  _496
REMARK  199  A    between atoms: _498  and  _500
REMARK  200  A    between atoms: _500  and  _501
REMARK  201  A    between atoms: _500  and  _503
REMARK  202  A    between atoms: _503  and  _504
REMARK  203  A    between atoms: _504  and  _505
REMARK  204  A    between atoms: _505  and  _506
REMARK  205  A    between atoms: _515  and  _517
REMARK  206  A    between atoms: _517  and  _518
REMARK  207  A    between atoms: _517  and  _520
REMARK  208  A    between atoms: _520  and  _521
REMARK                            x       y       z     vdW  Elec       q    Type
REMARK                         _______ _______ _______ _____ _____    ______ ____
ROOT
ATOM      1  CA  ILE A   6     -16.658  16.365  22.936  0.00  0.00    +0.149 C 
ENDROOT
BRANCH   1   2
ATOM      2  C   ILE A   6     -16.824  17.270  21.724  0.00  0.00    +0.241 C 
ATOM      3  N   ILE A   7     -17.422  18.445  21.962  0.00  0.00    -0.297 N 
ATOM      4  H   ILE A   7     -17.866  18.619  22.886  0.00  0.00    +0.150 HD
ATOM      5  O   ILE A   6     -16.434  16.904  20.618  0.00  0.00    -0.273 OA
BRANCH   3   6
ATOM      6  CA  ILE A   7     -17.457  19.482  20.939  0.00  0.00    +0.149 C 
BRANCH   6   7
ATOM      7  C   ILE A   7     -16.356  20.466  21.232  0.00  0.00    +0.241 C 
ATOM      8  O   ILE A   7     -16.413  21.141  22.241  0.00  0.00    -0.273 OA
ATOM      9  N   GLY A   8     -15.354  20.494  20.362  0.00  0.00    -0.295 N 
ATOM     10  H   GLY A   8     -15.394  19.885  19.520  0.00  0.00    +0.150 HD
BRANCH   9  11
ATOM     11  CA  GLY A   8     -14.206  21.354  20.559  0.00  0.00    +0.176 C 
BRANCH  11  12
ATOM     12  C   GLY A   8     -14.285  22.634  19.780  0.00  0.00    +0.243 C 
ATOM     13  N   ARG A   9     -13.178  23.369  19.861  0.00  0.00    -0.297 N 
ATOM     14  H   ARG A   9     -12.326  22.973  20.306  0.00  0.00    +0.150 HD
ATOM     15  O   GLY A   8     -15.287  22.989  19.159  0.00  0.00    -0.273 OA
BRANCH  13  16
ATOM     16  CA  ARG A   9     -13.154  24.724  19.330  0.00  0.00    +0.149 C 
BRANCH  16  17
ATOM     17  C   ARG A   9     -13.450  24.903  17.849  0.00  0.00    +0.241 C 
ATOM     18  O   ARG A   9     -14.063  25.884  17.462  0.00  0.00    -0.273 OA
ATOM     19  N   ASN A  10     -13.077  23.928  17.030  0.00  0.00    -0.298 N 
ATOM     20  H   ASN A  10     -12.523  23.121  17.381  0.00  0.00    +0.150 HD
BRANCH  19  21
ATOM     21  CA  ASN A  10     -13.468  24.015  15.602  0.00  0.00    +0.146 C 
BRANCH  21  22
ATOM     22  C   ASN A  10     -14.942  24.156  15.299  0.00  0.00    +0.227 C 
ATOM     23  O   ASN A  10     -15.319  24.620  14.243  0.00  0.00    -0.286 OA
ENDBRANCH  21  22
BRANCH  21  24
ATOM     24  CB  ASN A  10     -12.952  22.811  14.766  0.00  0.00    +0.112 C 
BRANCH  24  25
ATOM     25  CG  ASN A  10     -13.719  21.536  15.064  0.00  0.00    +0.222 C 
ATOM     26  OD1 ASN A  10     -14.009  21.234  16.206  0.00  0.00    -0.275 OA
ATOM     27  ND2 ASN A  10     -14.089  20.806  14.015  0.00  0.00    -0.329 N 
ATOM     28 HD21 ASN A  10     -14.648  19.940  14.155  0.00  0.00    +0.145 HD
ATOM     29 HD22 ASN A  10     -13.819  21.101  13.055  0.00  0.00    +0.145 HD
ENDBRANCH  24  25
ENDBRANCH  21  24
ENDBRANCH  19  21
ENDBRANCH  16  17
BRANCH  16  30
ATOM     30  CB  ARG A   9     -11.833  25.383  19.643  0.00  0.00    +0.033 C 
BRANCH  30  31
ATOM     31  CG  ARG A   9     -11.624  25.636  21.149  0.00  0.00    +0.045 C 
BRANCH  31  32
ATOM     32  CD  ARG A   9     -10.418  26.560  21.381  0.00  0.00    +0.174 C 
BRANCH  32  33
ATOM     33  NE  ARG A   9      -9.154  25.943  20.946  0.00  0.00    -0.265 N 
ATOM     34  HE  ARG A   9      -8.771  25.158  21.511  0.00  0.00    +0.259 HD
ATOM     35  CZ  ARG A   9      -8.477  26.330  19.877  0.00  0.00    +0.342 C 
ATOM     36  NH2 ARG A   9      -7.352  25.691  19.584  0.00  0.00    -0.292 N 
ATOM     37 HH21 ARG A   9      -7.025  24.910  20.188  0.00  0.00    +0.255 HD
ATOM     38 HH22 ARG A   9      -6.797  25.971  18.750  0.00  0.00    +0.255 HD
ATOM     39  NH1 ARG A   9      -8.910  27.310  19.105  0.00  0.00    -0.292 N 
ATOM     40 HH11 ARG A   9      -9.801  27.796  19.332  0.00  0.00    +0.255 HD
ATOM     41 HH12 ARG A   9      -8.360  27.596  18.270  0.00  0.00    +0.255 HD
ENDBRANCH  32  33
ENDBRANCH  31  32
ENDBRANCH  30  31
ENDBRANCH  16  30
ENDBRANCH  13  16
ENDBRANCH  11  12
ENDBRANCH   9  11
ENDBRANCH   6   7
BRANCH   6  42
ATOM     42  CB  ILE A   7     -18.797  20.235  20.983  0.00  0.00    +0.027 C 
ATOM     43  CG2 ILE A   7     -18.844  21.271  19.870  0.00  0.00    +0.002 C 
BRANCH  42  44
ATOM     44  CG1 ILE A   7     -20.039  19.362  20.895  0.00  0.00    +0.002 C 
ATOM     45  CD1 ILE A   7     -20.157  18.498  19.630  0.00  0.00    +0.000 C 
ENDBRANCH  42  44
ENDBRANCH   6  42
ENDBRANCH   3   6
ENDBRANCH   1   2
BRANCH   1  48
ATOM     46  C   ASN A   5     -18.368  14.630  23.313  0.00  0.00    +0.241 C 
ATOM     47  O   ASN A   5     -18.974  15.242  24.179  0.00  0.00    -0.273 OA
ATOM     48  N   ILE A   6     -17.326  15.097  22.655  0.00  0.00    -0.297 N 
ATOM     49  H   ILE A   6     -16.951  14.519  21.876  0.00  0.00    +0.150 HD
BRANCH  46  50
ATOM     50  CA  ASN A   5     -18.778  13.240  22.921  0.00  0.00    +0.158 C 
BRANCH  50  53
ATOM     51  C   PHE A   4     -17.783  11.818  24.585  0.00  0.00    +0.241 C 
ATOM     52  O   PHE A   4     -16.668  12.064  24.182  0.00  0.00    -0.273 OA
ATOM     53  N   ASN A   5     -18.860  12.394  24.102  0.00  0.00    -0.297 N 
ATOM     54  H   ASN A   5     -19.778  12.244  24.567  0.00  0.00    +0.150 HD
BRANCH  51  55
ATOM     55  CA  PHE A   4     -18.037  10.774  25.648  0.00  0.00    +0.153 C 
BRANCH  55  58
ATOM     56  C   PRO A   3     -16.860   8.924  26.727  0.00  0.00    +0.241 C 
ATOM     57  O   PRO A   3     -17.823   8.581  27.384  0.00  0.00    -0.273 OA
ATOM     58  N   PHE A   4     -16.823  10.035  25.982  0.00  0.00    -0.297 N 
ATOM     59  H   PHE A   4     -15.907  10.381  25.632  0.00  0.00    +0.150 HD
BRANCH  56  62
ATOM     60  C   THR A   2     -14.763   8.121  24.501  0.00  0.00    +0.246 C 
ATOM     61  N   PRO A   3     -14.563   8.405  25.791  0.00  0.00    -0.272 N 
ATOM     62  CA  PRO A   3     -15.610   8.070  26.764  0.00  0.00    +0.152 C 
ATOM     63  CB  PRO A   3     -14.868   8.229  28.099  0.00  0.00    +0.031 C 
ATOM     64  CG  PRO A   3     -13.790   9.275  27.848  0.00  0.00    +0.024 C 
ATOM     65  CD  PRO A   3     -13.361   8.949  26.430  0.00  0.00    +0.094 C 
ATOM     66  O   THR A   2     -15.738   7.523  24.083  0.00  0.00    -0.273 OA
BRANCH  60  67
ATOM     67  CA  THR A   2     -13.718   8.601  23.527  0.00  0.00    +0.176 C 
BRANCH  67  70
ATOM     68  C   PRO A   1     -12.980   6.513  22.556  0.00  0.00    +0.239 C 
ATOM     69  O   PRO A   1     -12.302   6.269  23.536  0.00  0.00    -0.274 OA
ATOM     70  N   THR A   2     -13.641   7.660  22.412  0.00  0.00    -0.295 N 
ATOM     71  H   THR A   2     -14.102   7.886  21.507  0.00  0.00    +0.150 HD
BRANCH  68  73
ATOM     72  N   PRO A   1     -12.798   6.007  20.080  0.00  0.00    -0.210 NA
ATOM     73  CA  PRO A   1     -13.098   5.489  21.422  0.00  0.00    +0.149 C 
ATOM     74  CB  PRO A   1     -12.049   4.362  21.527  0.00  0.00    +0.028 C 
ATOM     75  CG  PRO A   1     -10.855   4.804  20.714  0.00  0.00    +0.021 C 
ATOM     76  CD  PRO A   1     -11.513   5.543  19.561  0.00  0.00    +0.089 C 
ENDBRANCH  68  73
ENDBRANCH  67  70
BRANCH  67  77
ATOM     77  CB  THR A   2     -14.096   9.979  22.959  0.00  0.00    +0.137 C 
ATOM     78  CG2 THR A   2     -15.319   9.911  22.061  0.00  0.00    +0.034 C 
BRANCH  77  79
ATOM     79  OG1 THR A   2     -14.288  10.924  24.021  0.00  0.00    -0.382 OA
ATOM     80  HG1 THR A   2     -14.530  11.804  23.638  0.00  0.00    +0.210 HD
ENDBRANCH  77  79
ENDBRANCH  67  77
ENDBRANCH  60  67
ENDBRANCH  56  62
ENDBRANCH  55  58
BRANCH  55  81
ATOM     81  CB  PHE A   4     -18.746  11.400  26.864  0.00  0.00    +0.055 C 
BRANCH  81  82
ATOM     82  CG  PHE A   4     -17.801  12.116  27.772  0.00  0.00    -0.020 A 
ATOM     83  CD2 PHE A   4     -17.689  11.668  29.104  0.00  0.00    -0.004 A 
ATOM     84  CE2 PHE A   4     -16.792  12.314  29.979  0.00  0.00    -0.000 A 
ATOM     85  CZ  PHE A   4     -16.015  13.397  29.505  0.00  0.00    -0.000 A 
ATOM     86  CE1 PHE A   4     -16.123  13.838  28.170  0.00  0.00    -0.000 A 
ATOM     87  CD1 PHE A   4     -17.026  13.192  27.301  0.00  0.00    -0.004 A 
ENDBRANCH  81  82
ENDBRANCH  55  81
ENDBRANCH  51  55
ENDBRANCH  50  53
BRANCH  50  88
ATOM     88  CB  ASN A   5     -20.156  13.375  22.249  0.00  0.00    +0.114 C 
BRANCH  88  89
ATOM     89  CG  ASN A   5     -20.723  12.037  21.848  0.00  0.00    +0.222 C 
ATOM     90  ND2 ASN A   5     -21.937  11.765  22.294  0.00  0.00    -0.329 N 
ATOM     91 HD21 ASN A   5     -22.459  12.475  22.846  0.00  0.00    +0.145 HD
ATOM     92 HD22 ASN A   5     -22.370  10.841  22.093  0.00  0.00    +0.145 HD
ATOM     93  OD1 ASN A   5     -20.080  11.236  21.200  0.00  0.00    -0.275 OA
ENDBRANCH  88  89
ENDBRANCH  50  88
ENDBRANCH  46  50
ENDBRANCH   1  48
BRANCH   1  94
ATOM     94  CB  ILE A   6     -15.165  16.045  23.167  0.00  0.00    +0.027 C 
ATOM     95  CG2 ILE A   6     -14.298  17.285  23.272  0.00  0.00    +0.002 C 
BRANCH  94  96
ATOM     96  CG1 ILE A   6     -14.984  15.209  24.440  0.00  0.00    +0.002 C 
ATOM     97  CD1 ILE A   6     -13.611  14.562  24.584  0.00  0.00    +0.000 C 
ENDBRANCH  94  96
ENDBRANCH   1  94
TORSDOF 34
