REMARK  Name = ../refined-set-2016/4rfc/4rfc_pocket.pdb
REMARK  167 active torsions:
REMARK  status: ('A' for Active; 'I' for Inactive)
REMARK    1  A    between atoms: _1  and  _3
REMARK    2  A    between atoms: _3  and  _4
REMARK    3  A    between atoms: _3  and  _6
REMARK    4  A    between atoms: _6  and  _7
REMARK    5  A    between atoms: _17  and  _19
REMARK    6  A    between atoms: _19  and  _20
REMARK    7  A    between atoms: _19  and  _22
REMARK    8  A    between atoms: _22  and  _23
REMARK    9  A    between atoms: _28  and  _29
REMARK   10  A    between atoms: _31  and  _33
REMARK   11  A    between atoms: _33  and  _34
REMARK   12  A    between atoms: _33  and  _36
REMARK   13  A    between atoms: _36  and  _37
REMARK   14  A    between atoms: _43  and  _45
REMARK   15  A    between atoms: _45  and  _46
REMARK   16  A    between atoms: _45  and  _48
REMARK   17  A    between atoms: _48  and  _49
REMARK   18  A    between atoms: _52  and  _53
REMARK   19  A    between atoms: _58  and  _60
REMARK   20  A    between atoms: _60  and  _61
REMARK   21  A    between atoms: _60  and  _63
REMARK   22  A    between atoms: _63  and  _64
REMARK   23  A    between atoms: _69  and  _71
REMARK   24  A    between atoms: _71  and  _72
REMARK   25  A    between atoms: _75  and  _77
REMARK   26  A    between atoms: _77  and  _78
REMARK   27  A    between atoms: _77  and  _80
REMARK   28  A    between atoms: _80  and  _81
REMARK   29  A    between atoms: _86  and  _88
REMARK   30  A    between atoms: _88  and  _89
REMARK   31  A    between atoms: _88  and  _91
REMARK   32  A    between atoms: _91  and  _92
REMARK   33  A    between atoms: _95  and  _97
REMARK   34  A    between atoms: _97  and  _98
REMARK   35  A    between atoms: _97  and  _100
REMARK   36  A    between atoms: _100  and  _101
REMARK   37  A    between atoms: _101  and  _102
REMARK   38  A    between atoms: _107  and  _109
REMARK   39  A    between atoms: _109  and  _110
REMARK   40  A    between atoms: _109  and  _112
REMARK   41  A    between atoms: _112  and  _113
REMARK   42  A    between atoms: _119  and  _121
REMARK   43  A    between atoms: _132  and  _135
REMARK   44  A    between atoms: _135  and  _136
REMARK   45  A    between atoms: _144  and  _145
REMARK   46  A    between atoms: _153  and  _155
REMARK   47  A    between atoms: _155  and  _156
REMARK   48  A    between atoms: _155  and  _158
REMARK   49  A    between atoms: _158  and  _159
REMARK   50  A    between atoms: _159  and  _160
REMARK   51  A    between atoms: _163  and  _165
REMARK   52  A    between atoms: _165  and  _166
REMARK   53  A    between atoms: _165  and  _168
REMARK   54  A    between atoms: _168  and  _169
REMARK   55  A    between atoms: _174  and  _176
REMARK   56  A    between atoms: _176  and  _177
REMARK   57  A    between atoms: _176  and  _179
REMARK   58  A    between atoms: _179  and  _180
REMARK   59  A    between atoms: _180  and  _181
REMARK   60  A    between atoms: _184  and  _186
REMARK   61  A    between atoms: _186  and  _187
REMARK   62  A    between atoms: _186  and  _189
REMARK   63  A    between atoms: _189  and  _190
REMARK   64  A    between atoms: _193  and  _195
REMARK   65  A    between atoms: _195  and  _196
REMARK   66  A    between atoms: _195  and  _198
REMARK   67  A    between atoms: _198  and  _199
REMARK   68  A    between atoms: _200  and  ZN_459
REMARK   69  A    between atoms: _204  and  _206
REMARK   70  A    between atoms: _206  and  _207
REMARK   71  A    between atoms: _206  and  _209
REMARK   72  A    between atoms: _209  and  _210
REMARK   73  A    between atoms: _213  and  _215
REMARK   74  A    between atoms: _215  and  _216
REMARK   75  A    between atoms: _215  and  _218
REMARK   76  A    between atoms: _221  and  _223
REMARK   77  A    between atoms: _223  and  _224
REMARK   78  A    between atoms: _223  and  _226
REMARK   79  A    between atoms: _226  and  _227
REMARK   80  A    between atoms: _232  and  _234
REMARK   81  A    between atoms: _234  and  _235
REMARK   82  A    between atoms: _234  and  _237
REMARK   83  A    between atoms: _237  and  _238
REMARK   84  A    between atoms: _241  and  _243
REMARK   85  A    between atoms: _243  and  _244
REMARK   86  A    between atoms: _243  and  _246
REMARK   87  A    between atoms: _246  and  _247
REMARK   88  A    between atoms: _253  and  _255
REMARK   89  A    between atoms: _255  and  _256
REMARK   90  A    between atoms: _258  and  _260
REMARK   91  A    between atoms: _260  and  _261
REMARK   92  A    between atoms: _260  and  _263
REMARK   93  A    between atoms: _263  and  _264
REMARK   94  A    between atoms: _264  and  _265
REMARK   95  A    between atoms: _265  and  _266
REMARK   96  A    between atoms: _266  and  _267
REMARK   97  A    between atoms: _271  and  _273
REMARK   98  A    between atoms: _273  and  _274
REMARK   99  A    between atoms: _273  and  _276
REMARK  100  A    between atoms: _279  and  _281
REMARK  101  A    between atoms: _281  and  _282
REMARK  102  A    between atoms: _281  and  _284
REMARK  103  A    between atoms: _284  and  _285
REMARK  104  A    between atoms: _285  and  _286
REMARK  105  A    between atoms: _291  and  _293
REMARK  106  A    between atoms: _293  and  _294
REMARK  107  A    between atoms: _293  and  _296
REMARK  108  A    between atoms: _296  and  _297
REMARK  109  A    between atoms: _300  and  _302
REMARK  110  A    between atoms: _302  and  _303
REMARK  111  A    between atoms: _306  and  _308
REMARK  112  A    between atoms: _308  and  _309
REMARK  113  A    between atoms: _308  and  _311
REMARK  114  A    between atoms: _314  and  _316
REMARK  115  A    between atoms: _316  and  _317
REMARK  116  A    between atoms: _316  and  _319
REMARK  117  A    between atoms: _319  and  _320
REMARK  118  A    between atoms: _323  and  _325
REMARK  119  A    between atoms: _325  and  _326
REMARK  120  A    between atoms: _328  and  _330
REMARK  121  A    between atoms: _330  and  _331
REMARK  122  A    between atoms: _333  and  _335
REMARK  123  A    between atoms: _335  and  _336
REMARK  124  A    between atoms: _335  and  _338
REMARK  125  A    between atoms: _338  and  _339
REMARK  126  A    between atoms: _341  and  _343
REMARK  127  A    between atoms: _343  and  _344
REMARK  128  A    between atoms: _343  and  _346
REMARK  129  A    between atoms: _346  and  _347
REMARK  130  A    between atoms: _350  and  _352
REMARK  131  A    between atoms: _352  and  _353
REMARK  132  A    between atoms: _352  and  _355
REMARK  133  A    between atoms: _355  and  _356
REMARK  134  A    between atoms: _359  and  _361
REMARK  135  A    between atoms: _361  and  _362
REMARK  136  A    between atoms: _361  and  _364
REMARK  137  A    between atoms: _364  and  _365
REMARK  138  A    between atoms: _369  and  _370
REMARK  139  A    between atoms: _376  and  _377
REMARK  140  A    between atoms: _382  and  _384
REMARK  141  A    between atoms: _384  and  _385
REMARK  142  A    between atoms: _384  and  _387
REMARK  143  A    between atoms: _387  and  _388
REMARK  144  A    between atoms: _391  and  _393
REMARK  145  A    between atoms: _393  and  _394
REMARK  146  A    between atoms: _393  and  _396
REMARK  147  A    between atoms: _396  and  _397
REMARK  148  A    between atoms: _400  and  _402
REMARK  149  A    between atoms: _402  and  _403
REMARK  150  A    between atoms: _402  and  _405
REMARK  151  A    between atoms: _407  and  _409
REMARK  152  A    between atoms: _409  and  _410
REMARK  153  A    between atoms: _409  and  _412
REMARK  154  A    between atoms: _415  and  _417
REMARK  155  A    between atoms: _417  and  _418
REMARK  156  A    between atoms: _417  and  _420
REMARK  157  A    between atoms: _420  and  _421
REMARK  158  A    between atoms: _431  and  _433
REMARK  159  A    between atoms: _433  and  _434
REMARK  160  A    between atoms: _433  and  _436
REMARK  161  A    between atoms: _436  and  _437
REMARK  162  A    between atoms: _442  and  _444
REMARK  163  A    between atoms: _444  and  _445
REMARK  164  A    between atoms: _444  and  _447
REMARK  165  A    between atoms: _447  and  _448
REMARK  166  A    between atoms: _448  and  _449
REMARK  167  A    between atoms: _449  and  _450
REMARK                            x       y       z     vdW  Elec       q    Type
REMARK                         _______ _______ _______ _____ _____    ______ ____
ROOT
ATOM      1  CG  TRP A   1      27.074   0.863  12.162  0.00  0.00    -0.002 A 
ATOM      2  CD2 TRP A   1      25.717   0.402  12.122  0.00  0.00    +0.013 A 
ATOM      3  CE3 TRP A   1      25.110  -0.846  12.316  0.00  0.00    +0.001 A 
ATOM      4  CZ3 TRP A   1      23.741  -0.946  12.190  0.00  0.00    +0.000 A 
ATOM      5  CH2 TRP A   1      22.959   0.175  11.866  0.00  0.00    +0.001 A 
ATOM      6  CZ2 TRP A   1      23.521   1.410  11.666  0.00  0.00    +0.017 A 
ATOM      7  CE2 TRP A   1      24.907   1.512  11.795  0.00  0.00    +0.056 A 
ATOM      8  NE1 TRP A   1      25.733   2.599  11.658  0.00  0.00    -0.352 N 
ATOM      9  HE1 TRP A   1      25.427   3.566  11.429  0.00  0.00    +0.166 HD
ATOM     10  CD1 TRP A   1      27.032   2.202  11.873  0.00  0.00    +0.068 A 
ENDROOT
BRANCH   1  11
ATOM     11  CB  TRP A   1      28.289   0.043  12.478  0.00  0.00    +0.053 C 
BRANCH  11  12
ATOM     12  CA  TRP A   1      28.953  -0.626  11.271  0.00  0.00    +0.137 C 
BRANCH  12  13
ATOM     13  N   TRP A   1      29.599   0.367  10.421  0.00  0.00    -0.239 NA
ATOM     14  H   TRP A   1      29.349   1.372  10.520  0.00  0.00    +0.142 HD
ENDBRANCH  12  13
BRANCH  12  15
ATOM     15  C   TRP A   1      27.938  -1.450  10.495  0.00  0.00    +0.224 C 
ATOM     16  O   TRP A   1      27.397  -1.001   9.486  0.00  0.00    -0.287 OA
ENDBRANCH  12  15
ENDBRANCH  11  12
ENDBRANCH   1  11
TORSDOF 4
REMARK  Name = ../refined-set-2016/4rfc/4rfc_pocket.pdb
REMARK  167 active torsions:
REMARK  status: ('A' for Active; 'I' for Inactive)
REMARK    1  A    between atoms: _1  and  _3
REMARK    2  A    between atoms: _3  and  _4
REMARK    3  A    between atoms: _3  and  _6
REMARK    4  A    between atoms: _6  and  _7
REMARK    5  A    between atoms: _17  and  _19
REMARK    6  A    between atoms: _19  and  _20
REMARK    7  A    between atoms: _19  and  _22
REMARK    8  A    between atoms: _22  and  _23
REMARK    9  A    between atoms: _28  and  _29
REMARK   10  A    between atoms: _31  and  _33
REMARK   11  A    between atoms: _33  and  _34
REMARK   12  A    between atoms: _33  and  _36
REMARK   13  A    between atoms: _36  and  _37
REMARK   14  A    between atoms: _43  and  _45
REMARK   15  A    between atoms: _45  and  _46
REMARK   16  A    between atoms: _45  and  _48
REMARK   17  A    between atoms: _48  and  _49
REMARK   18  A    between atoms: _52  and  _53
REMARK   19  A    between atoms: _58  and  _60
REMARK   20  A    between atoms: _60  and  _61
REMARK   21  A    between atoms: _60  and  _63
REMARK   22  A    between atoms: _63  and  _64
REMARK   23  A    between atoms: _69  and  _71
REMARK   24  A    between atoms: _71  and  _72
REMARK   25  A    between atoms: _75  and  _77
REMARK   26  A    between atoms: _77  and  _78
REMARK   27  A    between atoms: _77  and  _80
REMARK   28  A    between atoms: _80  and  _81
REMARK   29  A    between atoms: _86  and  _88
REMARK   30  A    between atoms: _88  and  _89
REMARK   31  A    between atoms: _88  and  _91
REMARK   32  A    between atoms: _91  and  _92
REMARK   33  A    between atoms: _95  and  _97
REMARK   34  A    between atoms: _97  and  _98
REMARK   35  A    between atoms: _97  and  _100
REMARK   36  A    between atoms: _100  and  _101
REMARK   37  A    between atoms: _101  and  _102
REMARK   38  A    between atoms: _107  and  _109
REMARK   39  A    between atoms: _109  and  _110
REMARK   40  A    between atoms: _109  and  _112
REMARK   41  A    between atoms: _112  and  _113
REMARK   42  A    between atoms: _119  and  _121
REMARK   43  A    between atoms: _132  and  _135
REMARK   44  A    between atoms: _135  and  _136
REMARK   45  A    between atoms: _144  and  _145
REMARK   46  A    between atoms: _153  and  _155
REMARK   47  A    between atoms: _155  and  _156
REMARK   48  A    between atoms: _155  and  _158
REMARK   49  A    between atoms: _158  and  _159
REMARK   50  A    between atoms: _159  and  _160
REMARK   51  A    between atoms: _163  and  _165
REMARK   52  A    between atoms: _165  and  _166
REMARK   53  A    between atoms: _165  and  _168
REMARK   54  A    between atoms: _168  and  _169
REMARK   55  A    between atoms: _174  and  _176
REMARK   56  A    between atoms: _176  and  _177
REMARK   57  A    between atoms: _176  and  _179
REMARK   58  A    between atoms: _179  and  _180
REMARK   59  A    between atoms: _180  and  _181
REMARK   60  A    between atoms: _184  and  _186
REMARK   61  A    between atoms: _186  and  _187
REMARK   62  A    between atoms: _186  and  _189
REMARK   63  A    between atoms: _189  and  _190
REMARK   64  A    between atoms: _193  and  _195
REMARK   65  A    between atoms: _195  and  _196
REMARK   66  A    between atoms: _195  and  _198
REMARK   67  A    between atoms: _198  and  _199
REMARK   68  A    between atoms: _200  and  ZN_459
REMARK   69  A    between atoms: _204  and  _206
REMARK   70  A    between atoms: _206  and  _207
REMARK   71  A    between atoms: _206  and  _209
REMARK   72  A    between atoms: _209  and  _210
REMARK   73  A    between atoms: _213  and  _215
REMARK   74  A    between atoms: _215  and  _216
REMARK   75  A    between atoms: _215  and  _218
REMARK   76  A    between atoms: _221  and  _223
REMARK   77  A    between atoms: _223  and  _224
REMARK   78  A    between atoms: _223  and  _226
REMARK   79  A    between atoms: _226  and  _227
REMARK   80  A    between atoms: _232  and  _234
REMARK   81  A    between atoms: _234  and  _235
REMARK   82  A    between atoms: _234  and  _237
REMARK   83  A    between atoms: _237  and  _238
REMARK   84  A    between atoms: _241  and  _243
REMARK   85  A    between atoms: _243  and  _244
REMARK   86  A    between atoms: _243  and  _246
REMARK   87  A    between atoms: _246  and  _247
REMARK   88  A    between atoms: _253  and  _255
REMARK   89  A    between atoms: _255  and  _256
REMARK   90  A    between atoms: _258  and  _260
REMARK   91  A    between atoms: _260  and  _261
REMARK   92  A    between atoms: _260  and  _263
REMARK   93  A    between atoms: _263  and  _264
REMARK   94  A    between atoms: _264  and  _265
REMARK   95  A    between atoms: _265  and  _266
REMARK   96  A    between atoms: _266  and  _267
REMARK   97  A    between atoms: _271  and  _273
REMARK   98  A    between atoms: _273  and  _274
REMARK   99  A    between atoms: _273  and  _276
REMARK  100  A    between atoms: _279  and  _281
REMARK  101  A    between atoms: _281  and  _282
REMARK  102  A    between atoms: _281  and  _284
REMARK  103  A    between atoms: _284  and  _285
REMARK  104  A    between atoms: _285  and  _286
REMARK  105  A    between atoms: _291  and  _293
REMARK  106  A    between atoms: _293  and  _294
REMARK  107  A    between atoms: _293  and  _296
REMARK  108  A    between atoms: _296  and  _297
REMARK  109  A    between atoms: _300  and  _302
REMARK  110  A    between atoms: _302  and  _303
REMARK  111  A    between atoms: _306  and  _308
REMARK  112  A    between atoms: _308  and  _309
REMARK  113  A    between atoms: _308  and  _311
REMARK  114  A    between atoms: _314  and  _316
REMARK  115  A    between atoms: _316  and  _317
REMARK  116  A    between atoms: _316  and  _319
REMARK  117  A    between atoms: _319  and  _320
REMARK  118  A    between atoms: _323  and  _325
REMARK  119  A    between atoms: _325  and  _326
REMARK  120  A    between atoms: _328  and  _330
REMARK  121  A    between atoms: _330  and  _331
REMARK  122  A    between atoms: _333  and  _335
REMARK  123  A    between atoms: _335  and  _336
REMARK  124  A    between atoms: _335  and  _338
REMARK  125  A    between atoms: _338  and  _339
REMARK  126  A    between atoms: _341  and  _343
REMARK  127  A    between atoms: _343  and  _344
REMARK  128  A    between atoms: _343  and  _346
REMARK  129  A    between atoms: _346  and  _347
REMARK  130  A    between atoms: _350  and  _352
REMARK  131  A    between atoms: _352  and  _353
REMARK  132  A    between atoms: _352  and  _355
REMARK  133  A    between atoms: _355  and  _356
REMARK  134  A    between atoms: _359  and  _361
REMARK  135  A    between atoms: _361  and  _362
REMARK  136  A    between atoms: _361  and  _364
REMARK  137  A    between atoms: _364  and  _365
REMARK  138  A    between atoms: _369  and  _370
REMARK  139  A    between atoms: _376  and  _377
REMARK  140  A    between atoms: _382  and  _384
REMARK  141  A    between atoms: _384  and  _385
REMARK  142  A    between atoms: _384  and  _387
REMARK  143  A    between atoms: _387  and  _388
REMARK  144  A    between atoms: _391  and  _393
REMARK  145  A    between atoms: _393  and  _394
REMARK  146  A    between atoms: _393  and  _396
REMARK  147  A    between atoms: _396  and  _397
REMARK  148  A    between atoms: _400  and  _402
REMARK  149  A    between atoms: _402  and  _403
REMARK  150  A    between atoms: _402  and  _405
REMARK  151  A    between atoms: _407  and  _409
REMARK  152  A    between atoms: _409  and  _410
REMARK  153  A    between atoms: _409  and  _412
REMARK  154  A    between atoms: _415  and  _417
REMARK  155  A    between atoms: _417  and  _418
REMARK  156  A    between atoms: _417  and  _420
REMARK  157  A    between atoms: _420  and  _421
REMARK  158  A    between atoms: _431  and  _433
REMARK  159  A    between atoms: _433  and  _434
REMARK  160  A    between atoms: _433  and  _436
REMARK  161  A    between atoms: _436  and  _437
REMARK  162  A    between atoms: _442  and  _444
REMARK  163  A    between atoms: _444  and  _445
REMARK  164  A    between atoms: _444  and  _447
REMARK  165  A    between atoms: _447  and  _448
REMARK  166  A    between atoms: _448  and  _449
REMARK  167  A    between atoms: _449  and  _450
REMARK                            x       y       z     vdW  Elec       q    Type
REMARK                         _______ _______ _______ _____ _____    ______ ____
ROOT
ATOM      1  CG  TYR A   1      23.269  -6.268  11.771  0.00  0.00    -0.020 A 
ATOM      2  CD2 TYR A   1      22.889  -6.281  13.108  0.00  0.00    -0.001 A 
ATOM      3  CE2 TYR A   1      22.033  -5.309  13.613  0.00  0.00    +0.036 A 
ATOM      4  CZ  TYR A   1      21.563  -4.304  12.777  0.00  0.00    +0.134 A 
ATOM      5  CE1 TYR A   1      21.929  -4.275  11.450  0.00  0.00    +0.036 A 
ATOM      6  CD1 TYR A   1      22.782  -5.252  10.957  0.00  0.00    -0.001 A 
ENDROOT
BRANCH   4   7
ATOM      7  OH  TYR A   1      20.717  -3.326  13.259  0.00  0.00    -0.506 OA
ATOM      8  HH  TYR A   1      20.549  -3.482  14.222  0.00  0.00    +0.292 HD
ENDBRANCH   4   7
BRANCH   1   9
ATOM      9  CB  TYR A   1      24.200  -7.323  11.217  0.00  0.00    +0.051 C 
BRANCH   9  10
ATOM     10  CA  TYR A   1      25.679  -7.019  11.470  0.00  0.00    +0.137 C 
BRANCH  10  11
ATOM     11  N   TYR A   1      26.081  -5.839  10.719  0.00  0.00    -0.239 NA
ATOM     12  H   TYR A   1      26.155  -5.903   9.684  0.00  0.00    +0.142 HD
ENDBRANCH  10  11
BRANCH  10  13
ATOM     13  C   TYR A   1      26.532  -8.235  11.129  0.00  0.00    +0.224 C 
ATOM     14  O   TYR A   1      26.205  -9.356  11.511  0.00  0.00    -0.287 OA
ENDBRANCH  10  13
ENDBRANCH   9  10
ENDBRANCH   1   9
TORSDOF 5
REMARK  Name = ../refined-set-2016/4rfc/4rfc_pocket.pdb
REMARK  167 active torsions:
REMARK  status: ('A' for Active; 'I' for Inactive)
REMARK    1  A    between atoms: _1  and  _3
REMARK    2  A    between atoms: _3  and  _4
REMARK    3  A    between atoms: _3  and  _6
REMARK    4  A    between atoms: _6  and  _7
REMARK    5  A    between atoms: _17  and  _19
REMARK    6  A    between atoms: _19  and  _20
REMARK    7  A    between atoms: _19  and  _22
REMARK    8  A    between atoms: _22  and  _23
REMARK    9  A    between atoms: _28  and  _29
REMARK   10  A    between atoms: _31  and  _33
REMARK   11  A    between atoms: _33  and  _34
REMARK   12  A    between atoms: _33  and  _36
REMARK   13  A    between atoms: _36  and  _37
REMARK   14  A    between atoms: _43  and  _45
REMARK   15  A    between atoms: _45  and  _46
REMARK   16  A    between atoms: _45  and  _48
REMARK   17  A    between atoms: _48  and  _49
REMARK   18  A    between atoms: _52  and  _53
REMARK   19  A    between atoms: _58  and  _60
REMARK   20  A    between atoms: _60  and  _61
REMARK   21  A    between atoms: _60  and  _63
REMARK   22  A    between atoms: _63  and  _64
REMARK   23  A    between atoms: _69  and  _71
REMARK   24  A    between atoms: _71  and  _72
REMARK   25  A    between atoms: _75  and  _77
REMARK   26  A    between atoms: _77  and  _78
REMARK   27  A    between atoms: _77  and  _80
REMARK   28  A    between atoms: _80  and  _81
REMARK   29  A    between atoms: _86  and  _88
REMARK   30  A    between atoms: _88  and  _89
REMARK   31  A    between atoms: _88  and  _91
REMARK   32  A    between atoms: _91  and  _92
REMARK   33  A    between atoms: _95  and  _97
REMARK   34  A    between atoms: _97  and  _98
REMARK   35  A    between atoms: _97  and  _100
REMARK   36  A    between atoms: _100  and  _101
REMARK   37  A    between atoms: _101  and  _102
REMARK   38  A    between atoms: _107  and  _109
REMARK   39  A    between atoms: _109  and  _110
REMARK   40  A    between atoms: _109  and  _112
REMARK   41  A    between atoms: _112  and  _113
REMARK   42  A    between atoms: _119  and  _121
REMARK   43  A    between atoms: _132  and  _135
REMARK   44  A    between atoms: _135  and  _136
REMARK   45  A    between atoms: _144  and  _145
REMARK   46  A    between atoms: _153  and  _155
REMARK   47  A    between atoms: _155  and  _156
REMARK   48  A    between atoms: _155  and  _158
REMARK   49  A    between atoms: _158  and  _159
REMARK   50  A    between atoms: _159  and  _160
REMARK   51  A    between atoms: _163  and  _165
REMARK   52  A    between atoms: _165  and  _166
REMARK   53  A    between atoms: _165  and  _168
REMARK   54  A    between atoms: _168  and  _169
REMARK   55  A    between atoms: _174  and  _176
REMARK   56  A    between atoms: _176  and  _177
REMARK   57  A    between atoms: _176  and  _179
REMARK   58  A    between atoms: _179  and  _180
REMARK   59  A    between atoms: _180  and  _181
REMARK   60  A    between atoms: _184  and  _186
REMARK   61  A    between atoms: _186  and  _187
REMARK   62  A    between atoms: _186  and  _189
REMARK   63  A    between atoms: _189  and  _190
REMARK   64  A    between atoms: _193  and  _195
REMARK   65  A    between atoms: _195  and  _196
REMARK   66  A    between atoms: _195  and  _198
REMARK   67  A    between atoms: _198  and  _199
REMARK   68  A    between atoms: _200  and  ZN_459
REMARK   69  A    between atoms: _204  and  _206
REMARK   70  A    between atoms: _206  and  _207
REMARK   71  A    between atoms: _206  and  _209
REMARK   72  A    between atoms: _209  and  _210
REMARK   73  A    between atoms: _213  and  _215
REMARK   74  A    between atoms: _215  and  _216
REMARK   75  A    between atoms: _215  and  _218
REMARK   76  A    between atoms: _221  and  _223
REMARK   77  A    between atoms: _223  and  _224
REMARK   78  A    between atoms: _223  and  _226
REMARK   79  A    between atoms: _226  and  _227
REMARK   80  A    between atoms: _232  and  _234
REMARK   81  A    between atoms: _234  and  _235
REMARK   82  A    between atoms: _234  and  _237
REMARK   83  A    between atoms: _237  and  _238
REMARK   84  A    between atoms: _241  and  _243
REMARK   85  A    between atoms: _243  and  _244
REMARK   86  A    between atoms: _243  and  _246
REMARK   87  A    between atoms: _246  and  _247
REMARK   88  A    between atoms: _253  and  _255
REMARK   89  A    between atoms: _255  and  _256
REMARK   90  A    between atoms: _258  and  _260
REMARK   91  A    between atoms: _260  and  _261
REMARK   92  A    between atoms: _260  and  _263
REMARK   93  A    between atoms: _263  and  _264
REMARK   94  A    between atoms: _264  and  _265
REMARK   95  A    between atoms: _265  and  _266
REMARK   96  A    between atoms: _266  and  _267
REMARK   97  A    between atoms: _271  and  _273
REMARK   98  A    between atoms: _273  and  _274
REMARK   99  A    between atoms: _273  and  _276
REMARK  100  A    between atoms: _279  and  _281
REMARK  101  A    between atoms: _281  and  _282
REMARK  102  A    between atoms: _281  and  _284
REMARK  103  A    between atoms: _284  and  _285
REMARK  104  A    between atoms: _285  and  _286
REMARK  105  A    between atoms: _291  and  _293
REMARK  106  A    between atoms: _293  and  _294
REMARK  107  A    between atoms: _293  and  _296
REMARK  108  A    between atoms: _296  and  _297
REMARK  109  A    between atoms: _300  and  _302
REMARK  110  A    between atoms: _302  and  _303
REMARK  111  A    between atoms: _306  and  _308
REMARK  112  A    between atoms: _308  and  _309
REMARK  113  A    between atoms: _308  and  _311
REMARK  114  A    between atoms: _314  and  _316
REMARK  115  A    between atoms: _316  and  _317
REMARK  116  A    between atoms: _316  and  _319
REMARK  117  A    between atoms: _319  and  _320
REMARK  118  A    between atoms: _323  and  _325
REMARK  119  A    between atoms: _325  and  _326
REMARK  120  A    between atoms: _328  and  _330
REMARK  121  A    between atoms: _330  and  _331
REMARK  122  A    between atoms: _333  and  _335
REMARK  123  A    between atoms: _335  and  _336
REMARK  124  A    between atoms: _335  and  _338
REMARK  125  A    between atoms: _338  and  _339
REMARK  126  A    between atoms: _341  and  _343
REMARK  127  A    between atoms: _343  and  _344
REMARK  128  A    between atoms: _343  and  _346
REMARK  129  A    between atoms: _346  and  _347
REMARK  130  A    between atoms: _350  and  _352
REMARK  131  A    between atoms: _352  and  _353
REMARK  132  A    between atoms: _352  and  _355
REMARK  133  A    between atoms: _355  and  _356
REMARK  134  A    between atoms: _359  and  _361
REMARK  135  A    between atoms: _361  and  _362
REMARK  136  A    between atoms: _361  and  _364
REMARK  137  A    between atoms: _364  and  _365
REMARK  138  A    between atoms: _369  and  _370
REMARK  139  A    between atoms: _376  and  _377
REMARK  140  A    between atoms: _382  and  _384
REMARK  141  A    between atoms: _384  and  _385
REMARK  142  A    between atoms: _384  and  _387
REMARK  143  A    between atoms: _387  and  _388
REMARK  144  A    between atoms: _391  and  _393
REMARK  145  A    between atoms: _393  and  _394
REMARK  146  A    between atoms: _393  and  _396
REMARK  147  A    between atoms: _396  and  _397
REMARK  148  A    between atoms: _400  and  _402
REMARK  149  A    between atoms: _402  and  _403
REMARK  150  A    between atoms: _402  and  _405
REMARK  151  A    between atoms: _407  and  _409
REMARK  152  A    between atoms: _409  and  _410
REMARK  153  A    between atoms: _409  and  _412
REMARK  154  A    between atoms: _415  and  _417
REMARK  155  A    between atoms: _417  and  _418
REMARK  156  A    between atoms: _417  and  _420
REMARK  157  A    between atoms: _420  and  _421
REMARK  158  A    between atoms: _431  and  _433
REMARK  159  A    between atoms: _433  and  _434
REMARK  160  A    between atoms: _433  and  _436
REMARK  161  A    between atoms: _436  and  _437
REMARK  162  A    between atoms: _442  and  _444
REMARK  163  A    between atoms: _444  and  _445
REMARK  164  A    between atoms: _444  and  _447
REMARK  165  A    between atoms: _447  and  _448
REMARK  166  A    between atoms: _448  and  _449
REMARK  167  A    between atoms: _449  and  _450
REMARK                            x       y       z     vdW  Elec       q    Type
REMARK                         _______ _______ _______ _____ _____    ______ ____
ROOT
ATOM      1  CB  PHE A   1      28.697   3.947  19.217  0.00  0.00    +0.051 C 
ENDROOT
BRANCH   1   2
ATOM      2  CG  PHE A   1      28.633   4.300  17.754  0.00  0.00    -0.020 A 
ATOM      3  CD2 PHE A   1      28.247   5.567  17.352  0.00  0.00    -0.004 A 
ATOM      4  CE2 PHE A   1      28.212   5.903  16.007  0.00  0.00    -0.000 A 
ATOM      5  CZ  PHE A   1      28.585   4.969  15.043  0.00  0.00    -0.000 A 
ATOM      6  CE1 PHE A   1      28.985   3.702  15.434  0.00  0.00    -0.000 A 
ATOM      7  CD1 PHE A   1      29.013   3.378  16.783  0.00  0.00    -0.004 A 
ENDBRANCH   1   2
BRANCH   1   8
ATOM      8  CA  PHE A   1      30.036   4.312  19.862  0.00  0.00    +0.137 C 
BRANCH   8   9
ATOM      9  N   PHE A   1      31.131   3.791  19.055  0.00  0.00    -0.239 NA
ATOM     10  H   PHE A   1      31.302   2.765  19.035  0.00  0.00    +0.142 HD
ENDBRANCH   8   9
BRANCH   8  11
ATOM     11  C   PHE A   1      30.133   3.780  21.292  0.00  0.00    +0.224 C 
ATOM     12  O   PHE A   1      29.464   2.816  21.649  0.00  0.00    -0.287 OA
ENDBRANCH   8  11
ENDBRANCH   1   8
TORSDOF 4
REMARK  Name = ../refined-set-2016/4rfc/4rfc_pocket.pdb
REMARK  167 active torsions:
REMARK  status: ('A' for Active; 'I' for Inactive)
REMARK    1  A    between atoms: _1  and  _3
REMARK    2  A    between atoms: _3  and  _4
REMARK    3  A    between atoms: _3  and  _6
REMARK    4  A    between atoms: _6  and  _7
REMARK    5  A    between atoms: _17  and  _19
REMARK    6  A    between atoms: _19  and  _20
REMARK    7  A    between atoms: _19  and  _22
REMARK    8  A    between atoms: _22  and  _23
REMARK    9  A    between atoms: _28  and  _29
REMARK   10  A    between atoms: _31  and  _33
REMARK   11  A    between atoms: _33  and  _34
REMARK   12  A    between atoms: _33  and  _36
REMARK   13  A    between atoms: _36  and  _37
REMARK   14  A    between atoms: _43  and  _45
REMARK   15  A    between atoms: _45  and  _46
REMARK   16  A    between atoms: _45  and  _48
REMARK   17  A    between atoms: _48  and  _49
REMARK   18  A    between atoms: _52  and  _53
REMARK   19  A    between atoms: _58  and  _60
REMARK   20  A    between atoms: _60  and  _61
REMARK   21  A    between atoms: _60  and  _63
REMARK   22  A    between atoms: _63  and  _64
REMARK   23  A    between atoms: _69  and  _71
REMARK   24  A    between atoms: _71  and  _72
REMARK   25  A    between atoms: _75  and  _77
REMARK   26  A    between atoms: _77  and  _78
REMARK   27  A    between atoms: _77  and  _80
REMARK   28  A    between atoms: _80  and  _81
REMARK   29  A    between atoms: _86  and  _88
REMARK   30  A    between atoms: _88  and  _89
REMARK   31  A    between atoms: _88  and  _91
REMARK   32  A    between atoms: _91  and  _92
REMARK   33  A    between atoms: _95  and  _97
REMARK   34  A    between atoms: _97  and  _98
REMARK   35  A    between atoms: _97  and  _100
REMARK   36  A    between atoms: _100  and  _101
REMARK   37  A    between atoms: _101  and  _102
REMARK   38  A    between atoms: _107  and  _109
REMARK   39  A    between atoms: _109  and  _110
REMARK   40  A    between atoms: _109  and  _112
REMARK   41  A    between atoms: _112  and  _113
REMARK   42  A    between atoms: _119  and  _121
REMARK   43  A    between atoms: _132  and  _135
REMARK   44  A    between atoms: _135  and  _136
REMARK   45  A    between atoms: _144  and  _145
REMARK   46  A    between atoms: _153  and  _155
REMARK   47  A    between atoms: _155  and  _156
REMARK   48  A    between atoms: _155  and  _158
REMARK   49  A    between atoms: _158  and  _159
REMARK   50  A    between atoms: _159  and  _160
REMARK   51  A    between atoms: _163  and  _165
REMARK   52  A    between atoms: _165  and  _166
REMARK   53  A    between atoms: _165  and  _168
REMARK   54  A    between atoms: _168  and  _169
REMARK   55  A    between atoms: _174  and  _176
REMARK   56  A    between atoms: _176  and  _177
REMARK   57  A    between atoms: _176  and  _179
REMARK   58  A    between atoms: _179  and  _180
REMARK   59  A    between atoms: _180  and  _181
REMARK   60  A    between atoms: _184  and  _186
REMARK   61  A    between atoms: _186  and  _187
REMARK   62  A    between atoms: _186  and  _189
REMARK   63  A    between atoms: _189  and  _190
REMARK   64  A    between atoms: _193  and  _195
REMARK   65  A    between atoms: _195  and  _196
REMARK   66  A    between atoms: _195  and  _198
REMARK   67  A    between atoms: _198  and  _199
REMARK   68  A    between atoms: _200  and  ZN_459
REMARK   69  A    between atoms: _204  and  _206
REMARK   70  A    between atoms: _206  and  _207
REMARK   71  A    between atoms: _206  and  _209
REMARK   72  A    between atoms: _209  and  _210
REMARK   73  A    between atoms: _213  and  _215
REMARK   74  A    between atoms: _215  and  _216
REMARK   75  A    between atoms: _215  and  _218
REMARK   76  A    between atoms: _221  and  _223
REMARK   77  A    between atoms: _223  and  _224
REMARK   78  A    between atoms: _223  and  _226
REMARK   79  A    between atoms: _226  and  _227
REMARK   80  A    between atoms: _232  and  _234
REMARK   81  A    between atoms: _234  and  _235
REMARK   82  A    between atoms: _234  and  _237
REMARK   83  A    between atoms: _237  and  _238
REMARK   84  A    between atoms: _241  and  _243
REMARK   85  A    between atoms: _243  and  _244
REMARK   86  A    between atoms: _243  and  _246
REMARK   87  A    between atoms: _246  and  _247
REMARK   88  A    between atoms: _253  and  _255
REMARK   89  A    between atoms: _255  and  _256
REMARK   90  A    between atoms: _258  and  _260
REMARK   91  A    between atoms: _260  and  _261
REMARK   92  A    between atoms: _260  and  _263
REMARK   93  A    between atoms: _263  and  _264
REMARK   94  A    between atoms: _264  and  _265
REMARK   95  A    between atoms: _265  and  _266
REMARK   96  A    between atoms: _266  and  _267
REMARK   97  A    between atoms: _271  and  _273
REMARK   98  A    between atoms: _273  and  _274
REMARK   99  A    between atoms: _273  and  _276
REMARK  100  A    between atoms: _279  and  _281
REMARK  101  A    between atoms: _281  and  _282
REMARK  102  A    between atoms: _281  and  _284
REMARK  103  A    between atoms: _284  and  _285
REMARK  104  A    between atoms: _285  and  _286
REMARK  105  A    between atoms: _291  and  _293
REMARK  106  A    between atoms: _293  and  _294
REMARK  107  A    between atoms: _293  and  _296
REMARK  108  A    between atoms: _296  and  _297
REMARK  109  A    between atoms: _300  and  _302
REMARK  110  A    between atoms: _302  and  _303
REMARK  111  A    between atoms: _306  and  _308
REMARK  112  A    between atoms: _308  and  _309
REMARK  113  A    between atoms: _308  and  _311
REMARK  114  A    between atoms: _314  and  _316
REMARK  115  A    between atoms: _316  and  _317
REMARK  116  A    between atoms: _316  and  _319
REMARK  117  A    between atoms: _319  and  _320
REMARK  118  A    between atoms: _323  and  _325
REMARK  119  A    between atoms: _325  and  _326
REMARK  120  A    between atoms: _328  and  _330
REMARK  121  A    between atoms: _330  and  _331
REMARK  122  A    between atoms: _333  and  _335
REMARK  123  A    between atoms: _335  and  _336
REMARK  124  A    between atoms: _335  and  _338
REMARK  125  A    between atoms: _338  and  _339
REMARK  126  A    between atoms: _341  and  _343
REMARK  127  A    between atoms: _343  and  _344
REMARK  128  A    between atoms: _343  and  _346
REMARK  129  A    between atoms: _346  and  _347
REMARK  130  A    between atoms: _350  and  _352
REMARK  131  A    between atoms: _352  and  _353
REMARK  132  A    between atoms: _352  and  _355
REMARK  133  A    between atoms: _355  and  _356
REMARK  134  A    between atoms: _359  and  _361
REMARK  135  A    between atoms: _361  and  _362
REMARK  136  A    between atoms: _361  and  _364
REMARK  137  A    between atoms: _364  and  _365
REMARK  138  A    between atoms: _369  and  _370
REMARK  139  A    between atoms: _376  and  _377
REMARK  140  A    between atoms: _382  and  _384
REMARK  141  A    between atoms: _384  and  _385
REMARK  142  A    between atoms: _384  and  _387
REMARK  143  A    between atoms: _387  and  _388
REMARK  144  A    between atoms: _391  and  _393
REMARK  145  A    between atoms: _393  and  _394
REMARK  146  A    between atoms: _393  and  _396
REMARK  147  A    between atoms: _396  and  _397
REMARK  148  A    between atoms: _400  and  _402
REMARK  149  A    between atoms: _402  and  _403
REMARK  150  A    between atoms: _402  and  _405
REMARK  151  A    between atoms: _407  and  _409
REMARK  152  A    between atoms: _409  and  _410
REMARK  153  A    between atoms: _409  and  _412
REMARK  154  A    between atoms: _415  and  _417
REMARK  155  A    between atoms: _417  and  _418
REMARK  156  A    between atoms: _417  and  _420
REMARK  157  A    between atoms: _420  and  _421
REMARK  158  A    between atoms: _431  and  _433
REMARK  159  A    between atoms: _433  and  _434
REMARK  160  A    between atoms: _433  and  _436
REMARK  161  A    between atoms: _436  and  _437
REMARK  162  A    between atoms: _442  and  _444
REMARK  163  A    between atoms: _444  and  _445
REMARK  164  A    between atoms: _444  and  _447
REMARK  165  A    between atoms: _447  and  _448
REMARK  166  A    between atoms: _448  and  _449
REMARK  167  A    between atoms: _449  and  _450
REMARK                            x       y       z     vdW  Elec       q    Type
REMARK                         _______ _______ _______ _____ _____    ______ ____
ROOT
ATOM      1  C   SER A   1      18.986  -2.518  23.230  0.00  0.00    +0.244 C 
ATOM      2  N   PRO A   2      18.350  -3.674  22.964  0.00  0.00    -0.273 N 
ATOM      3  CA  PRO A   2      17.181  -4.220  23.668  0.00  0.00    +0.140 C 
ATOM      4  CB  PRO A   2      16.614  -5.209  22.657  0.00  0.00    +0.030 C 
ATOM      5  CG  PRO A   2      17.875  -5.768  22.027  0.00  0.00    +0.024 C 
ATOM      6  CD  PRO A   2      18.771  -4.561  21.861  0.00  0.00    +0.094 C 
ATOM      7  O   SER A   1      19.941  -2.126  22.569  0.00  0.00    -0.273 OA
ENDROOT
BRANCH   3   8
ATOM      8  C   PRO A   2      17.574  -4.938  24.953  0.00  0.00    +0.227 C 
ATOM      9  O   PRO A   2      18.752  -4.999  25.295  0.00  0.00    -0.286 OA
ENDBRANCH   3   8
BRANCH   1  10
ATOM     10  CA  SER A   1      18.459  -1.666  24.380  0.00  0.00    +0.175 C 
BRANCH  10  11
ATOM     11  N   SER A   1      19.513  -0.795  24.898  0.00  0.00    -0.236 NA
ATOM     12  H   SER A   1      19.976  -0.145  24.232  0.00  0.00    +0.142 HD
ENDBRANCH  10  11
BRANCH  10  13
ATOM     13  CB  SER A   1      17.278  -0.819  23.908  0.00  0.00    +0.163 C 
BRANCH  13  14
ATOM     14  OG  SER A   1      16.680  -0.160  25.010  0.00  0.00    -0.380 OA
ATOM     15  H   SER A   1      16.358  -0.833  25.661  0.00  0.00    +0.211 HD
ENDBRANCH  13  14
ENDBRANCH  10  13
ENDBRANCH   1  10
TORSDOF 5
REMARK  Name = ../refined-set-2016/4rfc/4rfc_pocket.pdb
REMARK  167 active torsions:
REMARK  status: ('A' for Active; 'I' for Inactive)
REMARK    1  A    between atoms: _1  and  _3
REMARK    2  A    between atoms: _3  and  _4
REMARK    3  A    between atoms: _3  and  _6
REMARK    4  A    between atoms: _6  and  _7
REMARK    5  A    between atoms: _17  and  _19
REMARK    6  A    between atoms: _19  and  _20
REMARK    7  A    between atoms: _19  and  _22
REMARK    8  A    between atoms: _22  and  _23
REMARK    9  A    between atoms: _28  and  _29
REMARK   10  A    between atoms: _31  and  _33
REMARK   11  A    between atoms: _33  and  _34
REMARK   12  A    between atoms: _33  and  _36
REMARK   13  A    between atoms: _36  and  _37
REMARK   14  A    between atoms: _43  and  _45
REMARK   15  A    between atoms: _45  and  _46
REMARK   16  A    between atoms: _45  and  _48
REMARK   17  A    between atoms: _48  and  _49
REMARK   18  A    between atoms: _52  and  _53
REMARK   19  A    between atoms: _58  and  _60
REMARK   20  A    between atoms: _60  and  _61
REMARK   21  A    between atoms: _60  and  _63
REMARK   22  A    between atoms: _63  and  _64
REMARK   23  A    between atoms: _69  and  _71
REMARK   24  A    between atoms: _71  and  _72
REMARK   25  A    between atoms: _75  and  _77
REMARK   26  A    between atoms: _77  and  _78
REMARK   27  A    between atoms: _77  and  _80
REMARK   28  A    between atoms: _80  and  _81
REMARK   29  A    between atoms: _86  and  _88
REMARK   30  A    between atoms: _88  and  _89
REMARK   31  A    between atoms: _88  and  _91
REMARK   32  A    between atoms: _91  and  _92
REMARK   33  A    between atoms: _95  and  _97
REMARK   34  A    between atoms: _97  and  _98
REMARK   35  A    between atoms: _97  and  _100
REMARK   36  A    between atoms: _100  and  _101
REMARK   37  A    between atoms: _101  and  _102
REMARK   38  A    between atoms: _107  and  _109
REMARK   39  A    between atoms: _109  and  _110
REMARK   40  A    between atoms: _109  and  _112
REMARK   41  A    between atoms: _112  and  _113
REMARK   42  A    between atoms: _119  and  _121
REMARK   43  A    between atoms: _132  and  _135
REMARK   44  A    between atoms: _135  and  _136
REMARK   45  A    between atoms: _144  and  _145
REMARK   46  A    between atoms: _153  and  _155
REMARK   47  A    between atoms: _155  and  _156
REMARK   48  A    between atoms: _155  and  _158
REMARK   49  A    between atoms: _158  and  _159
REMARK   50  A    between atoms: _159  and  _160
REMARK   51  A    between atoms: _163  and  _165
REMARK   52  A    between atoms: _165  and  _166
REMARK   53  A    between atoms: _165  and  _168
REMARK   54  A    between atoms: _168  and  _169
REMARK   55  A    between atoms: _174  and  _176
REMARK   56  A    between atoms: _176  and  _177
REMARK   57  A    between atoms: _176  and  _179
REMARK   58  A    between atoms: _179  and  _180
REMARK   59  A    between atoms: _180  and  _181
REMARK   60  A    between atoms: _184  and  _186
REMARK   61  A    between atoms: _186  and  _187
REMARK   62  A    between atoms: _186  and  _189
REMARK   63  A    between atoms: _189  and  _190
REMARK   64  A    between atoms: _193  and  _195
REMARK   65  A    between atoms: _195  and  _196
REMARK   66  A    between atoms: _195  and  _198
REMARK   67  A    between atoms: _198  and  _199
REMARK   68  A    between atoms: _200  and  ZN_459
REMARK   69  A    between atoms: _204  and  _206
REMARK   70  A    between atoms: _206  and  _207
REMARK   71  A    between atoms: _206  and  _209
REMARK   72  A    between atoms: _209  and  _210
REMARK   73  A    between atoms: _213  and  _215
REMARK   74  A    between atoms: _215  and  _216
REMARK   75  A    between atoms: _215  and  _218
REMARK   76  A    between atoms: _221  and  _223
REMARK   77  A    between atoms: _223  and  _224
REMARK   78  A    between atoms: _223  and  _226
REMARK   79  A    between atoms: _226  and  _227
REMARK   80  A    between atoms: _232  and  _234
REMARK   81  A    between atoms: _234  and  _235
REMARK   82  A    between atoms: _234  and  _237
REMARK   83  A    between atoms: _237  and  _238
REMARK   84  A    between atoms: _241  and  _243
REMARK   85  A    between atoms: _243  and  _244
REMARK   86  A    between atoms: _243  and  _246
REMARK   87  A    between atoms: _246  and  _247
REMARK   88  A    between atoms: _253  and  _255
REMARK   89  A    between atoms: _255  and  _256
REMARK   90  A    between atoms: _258  and  _260
REMARK   91  A    between atoms: _260  and  _261
REMARK   92  A    between atoms: _260  and  _263
REMARK   93  A    between atoms: _263  and  _264
REMARK   94  A    between atoms: _264  and  _265
REMARK   95  A    between atoms: _265  and  _266
REMARK   96  A    between atoms: _266  and  _267
REMARK   97  A    between atoms: _271  and  _273
REMARK   98  A    between atoms: _273  and  _274
REMARK   99  A    between atoms: _273  and  _276
REMARK  100  A    between atoms: _279  and  _281
REMARK  101  A    between atoms: _281  and  _282
REMARK  102  A    between atoms: _281  and  _284
REMARK  103  A    between atoms: _284  and  _285
REMARK  104  A    between atoms: _285  and  _286
REMARK  105  A    between atoms: _291  and  _293
REMARK  106  A    between atoms: _293  and  _294
REMARK  107  A    between atoms: _293  and  _296
REMARK  108  A    between atoms: _296  and  _297
REMARK  109  A    between atoms: _300  and  _302
REMARK  110  A    between atoms: _302  and  _303
REMARK  111  A    between atoms: _306  and  _308
REMARK  112  A    between atoms: _308  and  _309
REMARK  113  A    between atoms: _308  and  _311
REMARK  114  A    between atoms: _314  and  _316
REMARK  115  A    between atoms: _316  and  _317
REMARK  116  A    between atoms: _316  and  _319
REMARK  117  A    between atoms: _319  and  _320
REMARK  118  A    between atoms: _323  and  _325
REMARK  119  A    between atoms: _325  and  _326
REMARK  120  A    between atoms: _328  and  _330
REMARK  121  A    between atoms: _330  and  _331
REMARK  122  A    between atoms: _333  and  _335
REMARK  123  A    between atoms: _335  and  _336
REMARK  124  A    between atoms: _335  and  _338
REMARK  125  A    between atoms: _338  and  _339
REMARK  126  A    between atoms: _341  and  _343
REMARK  127  A    between atoms: _343  and  _344
REMARK  128  A    between atoms: _343  and  _346
REMARK  129  A    between atoms: _346  and  _347
REMARK  130  A    between atoms: _350  and  _352
REMARK  131  A    between atoms: _352  and  _353
REMARK  132  A    between atoms: _352  and  _355
REMARK  133  A    between atoms: _355  and  _356
REMARK  134  A    between atoms: _359  and  _361
REMARK  135  A    between atoms: _361  and  _362
REMARK  136  A    between atoms: _361  and  _364
REMARK  137  A    between atoms: _364  and  _365
REMARK  138  A    between atoms: _369  and  _370
REMARK  139  A    between atoms: _376  and  _377
REMARK  140  A    between atoms: _382  and  _384
REMARK  141  A    between atoms: _384  and  _385
REMARK  142  A    between atoms: _384  and  _387
REMARK  143  A    between atoms: _387  and  _388
REMARK  144  A    between atoms: _391  and  _393
REMARK  145  A    between atoms: _393  and  _394
REMARK  146  A    between atoms: _393  and  _396
REMARK  147  A    between atoms: _396  and  _397
REMARK  148  A    between atoms: _400  and  _402
REMARK  149  A    between atoms: _402  and  _403
REMARK  150  A    between atoms: _402  and  _405
REMARK  151  A    between atoms: _407  and  _409
REMARK  152  A    between atoms: _409  and  _410
REMARK  153  A    between atoms: _409  and  _412
REMARK  154  A    between atoms: _415  and  _417
REMARK  155  A    between atoms: _417  and  _418
REMARK  156  A    between atoms: _417  and  _420
REMARK  157  A    between atoms: _420  and  _421
REMARK  158  A    between atoms: _431  and  _433
REMARK  159  A    between atoms: _433  and  _434
REMARK  160  A    between atoms: _433  and  _436
REMARK  161  A    between atoms: _436  and  _437
REMARK  162  A    between atoms: _442  and  _444
REMARK  163  A    between atoms: _444  and  _445
REMARK  164  A    between atoms: _444  and  _447
REMARK  165  A    between atoms: _447  and  _448
REMARK  166  A    between atoms: _448  and  _449
REMARK  167  A    between atoms: _449  and  _450
REMARK                            x       y       z     vdW  Elec       q    Type
REMARK                         _______ _______ _______ _____ _____    ______ ____
ROOT
ATOM      1  CB  ASN A   1      18.589   2.861   5.340  0.00  0.00    +0.110 C 
ENDROOT
BRANCH   1   2
ATOM      2  CG  ASN A   1      18.272   2.009   6.562  0.00  0.00    +0.221 C 
ATOM      3  ND2 ASN A   1      17.648   2.630   7.553  0.00  0.00    -0.329 N 
ATOM      4 HD21 ASN A   1      17.399   2.109   8.418  0.00  0.00    +0.145 HD
ATOM      5 HD22 ASN A   1      17.408   3.638   7.466  0.00  0.00    +0.145 HD
ATOM      6  OD1 ASN A   1      18.579   0.813   6.617  0.00  0.00    -0.275 OA
ENDBRANCH   1   2
BRANCH   1   7
ATOM      7  CA  ASN A   1      18.968   2.025   4.105  0.00  0.00    +0.142 C 
BRANCH   7   8
ATOM      8  N   ASN A   1      17.851   1.190   3.690  0.00  0.00    -0.239 NA
ATOM      9  H   ASN A   1      17.310   0.645   4.391  0.00  0.00    +0.142 HD
ENDBRANCH   7   8
BRANCH   7  10
ATOM     10  C   ASN A   1      20.244   1.219   4.372  0.00  0.00    +0.225 C 
ATOM     11  O   ASN A   1      21.191   1.744   4.934  0.00  0.00    -0.287 OA
ENDBRANCH   7  10
ENDBRANCH   1   7
TORSDOF 4
REMARK  Name = ../refined-set-2016/4rfc/4rfc_pocket.pdb
REMARK  167 active torsions:
REMARK  status: ('A' for Active; 'I' for Inactive)
REMARK    1  A    between atoms: _1  and  _3
REMARK    2  A    between atoms: _3  and  _4
REMARK    3  A    between atoms: _3  and  _6
REMARK    4  A    between atoms: _6  and  _7
REMARK    5  A    between atoms: _17  and  _19
REMARK    6  A    between atoms: _19  and  _20
REMARK    7  A    between atoms: _19  and  _22
REMARK    8  A    between atoms: _22  and  _23
REMARK    9  A    between atoms: _28  and  _29
REMARK   10  A    between atoms: _31  and  _33
REMARK   11  A    between atoms: _33  and  _34
REMARK   12  A    between atoms: _33  and  _36
REMARK   13  A    between atoms: _36  and  _37
REMARK   14  A    between atoms: _43  and  _45
REMARK   15  A    between atoms: _45  and  _46
REMARK   16  A    between atoms: _45  and  _48
REMARK   17  A    between atoms: _48  and  _49
REMARK   18  A    between atoms: _52  and  _53
REMARK   19  A    between atoms: _58  and  _60
REMARK   20  A    between atoms: _60  and  _61
REMARK   21  A    between atoms: _60  and  _63
REMARK   22  A    between atoms: _63  and  _64
REMARK   23  A    between atoms: _69  and  _71
REMARK   24  A    between atoms: _71  and  _72
REMARK   25  A    between atoms: _75  and  _77
REMARK   26  A    between atoms: _77  and  _78
REMARK   27  A    between atoms: _77  and  _80
REMARK   28  A    between atoms: _80  and  _81
REMARK   29  A    between atoms: _86  and  _88
REMARK   30  A    between atoms: _88  and  _89
REMARK   31  A    between atoms: _88  and  _91
REMARK   32  A    between atoms: _91  and  _92
REMARK   33  A    between atoms: _95  and  _97
REMARK   34  A    between atoms: _97  and  _98
REMARK   35  A    between atoms: _97  and  _100
REMARK   36  A    between atoms: _100  and  _101
REMARK   37  A    between atoms: _101  and  _102
REMARK   38  A    between atoms: _107  and  _109
REMARK   39  A    between atoms: _109  and  _110
REMARK   40  A    between atoms: _109  and  _112
REMARK   41  A    between atoms: _112  and  _113
REMARK   42  A    between atoms: _119  and  _121
REMARK   43  A    between atoms: _132  and  _135
REMARK   44  A    between atoms: _135  and  _136
REMARK   45  A    between atoms: _144  and  _145
REMARK   46  A    between atoms: _153  and  _155
REMARK   47  A    between atoms: _155  and  _156
REMARK   48  A    between atoms: _155  and  _158
REMARK   49  A    between atoms: _158  and  _159
REMARK   50  A    between atoms: _159  and  _160
REMARK   51  A    between atoms: _163  and  _165
REMARK   52  A    between atoms: _165  and  _166
REMARK   53  A    between atoms: _165  and  _168
REMARK   54  A    between atoms: _168  and  _169
REMARK   55  A    between atoms: _174  and  _176
REMARK   56  A    between atoms: _176  and  _177
REMARK   57  A    between atoms: _176  and  _179
REMARK   58  A    between atoms: _179  and  _180
REMARK   59  A    between atoms: _180  and  _181
REMARK   60  A    between atoms: _184  and  _186
REMARK   61  A    between atoms: _186  and  _187
REMARK   62  A    between atoms: _186  and  _189
REMARK   63  A    between atoms: _189  and  _190
REMARK   64  A    between atoms: _193  and  _195
REMARK   65  A    between atoms: _195  and  _196
REMARK   66  A    between atoms: _195  and  _198
REMARK   67  A    between atoms: _198  and  _199
REMARK   68  A    between atoms: _200  and  ZN_459
REMARK   69  A    between atoms: _204  and  _206
REMARK   70  A    between atoms: _206  and  _207
REMARK   71  A    between atoms: _206  and  _209
REMARK   72  A    between atoms: _209  and  _210
REMARK   73  A    between atoms: _213  and  _215
REMARK   74  A    between atoms: _215  and  _216
REMARK   75  A    between atoms: _215  and  _218
REMARK   76  A    between atoms: _221  and  _223
REMARK   77  A    between atoms: _223  and  _224
REMARK   78  A    between atoms: _223  and  _226
REMARK   79  A    between atoms: _226  and  _227
REMARK   80  A    between atoms: _232  and  _234
REMARK   81  A    between atoms: _234  and  _235
REMARK   82  A    between atoms: _234  and  _237
REMARK   83  A    between atoms: _237  and  _238
REMARK   84  A    between atoms: _241  and  _243
REMARK   85  A    between atoms: _243  and  _244
REMARK   86  A    between atoms: _243  and  _246
REMARK   87  A    between atoms: _246  and  _247
REMARK   88  A    between atoms: _253  and  _255
REMARK   89  A    between atoms: _255  and  _256
REMARK   90  A    between atoms: _258  and  _260
REMARK   91  A    between atoms: _260  and  _261
REMARK   92  A    between atoms: _260  and  _263
REMARK   93  A    between atoms: _263  and  _264
REMARK   94  A    between atoms: _264  and  _265
REMARK   95  A    between atoms: _265  and  _266
REMARK   96  A    between atoms: _266  and  _267
REMARK   97  A    between atoms: _271  and  _273
REMARK   98  A    between atoms: _273  and  _274
REMARK   99  A    between atoms: _273  and  _276
REMARK  100  A    between atoms: _279  and  _281
REMARK  101  A    between atoms: _281  and  _282
REMARK  102  A    between atoms: _281  and  _284
REMARK  103  A    between atoms: _284  and  _285
REMARK  104  A    between atoms: _285  and  _286
REMARK  105  A    between atoms: _291  and  _293
REMARK  106  A    between atoms: _293  and  _294
REMARK  107  A    between atoms: _293  and  _296
REMARK  108  A    between atoms: _296  and  _297
REMARK  109  A    between atoms: _300  and  _302
REMARK  110  A    between atoms: _302  and  _303
REMARK  111  A    between atoms: _306  and  _308
REMARK  112  A    between atoms: _308  and  _309
REMARK  113  A    between atoms: _308  and  _311
REMARK  114  A    between atoms: _314  and  _316
REMARK  115  A    between atoms: _316  and  _317
REMARK  116  A    between atoms: _316  and  _319
REMARK  117  A    between atoms: _319  and  _320
REMARK  118  A    between atoms: _323  and  _325
REMARK  119  A    between atoms: _325  and  _326
REMARK  120  A    between atoms: _328  and  _330
REMARK  121  A    between atoms: _330  and  _331
REMARK  122  A    between atoms: _333  and  _335
REMARK  123  A    between atoms: _335  and  _336
REMARK  124  A    between atoms: _335  and  _338
REMARK  125  A    between atoms: _338  and  _339
REMARK  126  A    between atoms: _341  and  _343
REMARK  127  A    between atoms: _343  and  _344
REMARK  128  A    between atoms: _343  and  _346
REMARK  129  A    between atoms: _346  and  _347
REMARK  130  A    between atoms: _350  and  _352
REMARK  131  A    between atoms: _352  and  _353
REMARK  132  A    between atoms: _352  and  _355
REMARK  133  A    between atoms: _355  and  _356
REMARK  134  A    between atoms: _359  and  _361
REMARK  135  A    between atoms: _361  and  _362
REMARK  136  A    between atoms: _361  and  _364
REMARK  137  A    between atoms: _364  and  _365
REMARK  138  A    between atoms: _369  and  _370
REMARK  139  A    between atoms: _376  and  _377
REMARK  140  A    between atoms: _382  and  _384
REMARK  141  A    between atoms: _384  and  _385
REMARK  142  A    between atoms: _384  and  _387
REMARK  143  A    between atoms: _387  and  _388
REMARK  144  A    between atoms: _391  and  _393
REMARK  145  A    between atoms: _393  and  _394
REMARK  146  A    between atoms: _393  and  _396
REMARK  147  A    between atoms: _396  and  _397
REMARK  148  A    between atoms: _400  and  _402
REMARK  149  A    between atoms: _402  and  _403
REMARK  150  A    between atoms: _402  and  _405
REMARK  151  A    between atoms: _407  and  _409
REMARK  152  A    between atoms: _409  and  _410
REMARK  153  A    between atoms: _409  and  _412
REMARK  154  A    between atoms: _415  and  _417
REMARK  155  A    between atoms: _417  and  _418
REMARK  156  A    between atoms: _417  and  _420
REMARK  157  A    between atoms: _420  and  _421
REMARK  158  A    between atoms: _431  and  _433
REMARK  159  A    between atoms: _433  and  _434
REMARK  160  A    between atoms: _433  and  _436
REMARK  161  A    between atoms: _436  and  _437
REMARK  162  A    between atoms: _442  and  _444
REMARK  163  A    between atoms: _444  and  _445
REMARK  164  A    between atoms: _444  and  _447
REMARK  165  A    between atoms: _447  and  _448
REMARK  166  A    between atoms: _448  and  _449
REMARK  167  A    between atoms: _449  and  _450
REMARK                            x       y       z     vdW  Elec       q    Type
REMARK                         _______ _______ _______ _____ _____    ______ ____
ROOT
ATOM      1  CA  ALA A   1      16.691  -2.466   7.364  0.00  0.00    +0.133 C 
ATOM      2  CB  ALA A   1      16.074  -2.181   8.724  0.00  0.00    +0.027 C 
ENDROOT
BRANCH   1   3
ATOM      3  N   ALA A   1      18.068  -1.988   7.303  0.00  0.00    -0.239 NA
ATOM      4  H   ALA A   1      18.265  -1.120   6.765  0.00  0.00    +0.142 HD
ENDBRANCH   1   3
BRANCH   1   5
ATOM      5  C   ALA A   1      15.935  -1.748   6.246  0.00  0.00    +0.224 C 
ATOM      6  O   ALA A   1      16.563  -1.089   5.425  0.00  0.00    -0.287 OA
ENDBRANCH   1   5
TORSDOF 2
REMARK  Name = ../refined-set-2016/4rfc/4rfc_pocket.pdb
REMARK  167 active torsions:
REMARK  status: ('A' for Active; 'I' for Inactive)
REMARK    1  A    between atoms: _1  and  _3
REMARK    2  A    between atoms: _3  and  _4
REMARK    3  A    between atoms: _3  and  _6
REMARK    4  A    between atoms: _6  and  _7
REMARK    5  A    between atoms: _17  and  _19
REMARK    6  A    between atoms: _19  and  _20
REMARK    7  A    between atoms: _19  and  _22
REMARK    8  A    between atoms: _22  and  _23
REMARK    9  A    between atoms: _28  and  _29
REMARK   10  A    between atoms: _31  and  _33
REMARK   11  A    between atoms: _33  and  _34
REMARK   12  A    between atoms: _33  and  _36
REMARK   13  A    between atoms: _36  and  _37
REMARK   14  A    between atoms: _43  and  _45
REMARK   15  A    between atoms: _45  and  _46
REMARK   16  A    between atoms: _45  and  _48
REMARK   17  A    between atoms: _48  and  _49
REMARK   18  A    between atoms: _52  and  _53
REMARK   19  A    between atoms: _58  and  _60
REMARK   20  A    between atoms: _60  and  _61
REMARK   21  A    between atoms: _60  and  _63
REMARK   22  A    between atoms: _63  and  _64
REMARK   23  A    between atoms: _69  and  _71
REMARK   24  A    between atoms: _71  and  _72
REMARK   25  A    between atoms: _75  and  _77
REMARK   26  A    between atoms: _77  and  _78
REMARK   27  A    between atoms: _77  and  _80
REMARK   28  A    between atoms: _80  and  _81
REMARK   29  A    between atoms: _86  and  _88
REMARK   30  A    between atoms: _88  and  _89
REMARK   31  A    between atoms: _88  and  _91
REMARK   32  A    between atoms: _91  and  _92
REMARK   33  A    between atoms: _95  and  _97
REMARK   34  A    between atoms: _97  and  _98
REMARK   35  A    between atoms: _97  and  _100
REMARK   36  A    between atoms: _100  and  _101
REMARK   37  A    between atoms: _101  and  _102
REMARK   38  A    between atoms: _107  and  _109
REMARK   39  A    between atoms: _109  and  _110
REMARK   40  A    between atoms: _109  and  _112
REMARK   41  A    between atoms: _112  and  _113
REMARK   42  A    between atoms: _119  and  _121
REMARK   43  A    between atoms: _132  and  _135
REMARK   44  A    between atoms: _135  and  _136
REMARK   45  A    between atoms: _144  and  _145
REMARK   46  A    between atoms: _153  and  _155
REMARK   47  A    between atoms: _155  and  _156
REMARK   48  A    between atoms: _155  and  _158
REMARK   49  A    between atoms: _158  and  _159
REMARK   50  A    between atoms: _159  and  _160
REMARK   51  A    between atoms: _163  and  _165
REMARK   52  A    between atoms: _165  and  _166
REMARK   53  A    between atoms: _165  and  _168
REMARK   54  A    between atoms: _168  and  _169
REMARK   55  A    between atoms: _174  and  _176
REMARK   56  A    between atoms: _176  and  _177
REMARK   57  A    between atoms: _176  and  _179
REMARK   58  A    between atoms: _179  and  _180
REMARK   59  A    between atoms: _180  and  _181
REMARK   60  A    between atoms: _184  and  _186
REMARK   61  A    between atoms: _186  and  _187
REMARK   62  A    between atoms: _186  and  _189
REMARK   63  A    between atoms: _189  and  _190
REMARK   64  A    between atoms: _193  and  _195
REMARK   65  A    between atoms: _195  and  _196
REMARK   66  A    between atoms: _195  and  _198
REMARK   67  A    between atoms: _198  and  _199
REMARK   68  A    between atoms: _200  and  ZN_459
REMARK   69  A    between atoms: _204  and  _206
REMARK   70  A    between atoms: _206  and  _207
REMARK   71  A    between atoms: _206  and  _209
REMARK   72  A    between atoms: _209  and  _210
REMARK   73  A    between atoms: _213  and  _215
REMARK   74  A    between atoms: _215  and  _216
REMARK   75  A    between atoms: _215  and  _218
REMARK   76  A    between atoms: _221  and  _223
REMARK   77  A    between atoms: _223  and  _224
REMARK   78  A    between atoms: _223  and  _226
REMARK   79  A    between atoms: _226  and  _227
REMARK   80  A    between atoms: _232  and  _234
REMARK   81  A    between atoms: _234  and  _235
REMARK   82  A    between atoms: _234  and  _237
REMARK   83  A    between atoms: _237  and  _238
REMARK   84  A    between atoms: _241  and  _243
REMARK   85  A    between atoms: _243  and  _244
REMARK   86  A    between atoms: _243  and  _246
REMARK   87  A    between atoms: _246  and  _247
REMARK   88  A    between atoms: _253  and  _255
REMARK   89  A    between atoms: _255  and  _256
REMARK   90  A    between atoms: _258  and  _260
REMARK   91  A    between atoms: _260  and  _261
REMARK   92  A    between atoms: _260  and  _263
REMARK   93  A    between atoms: _263  and  _264
REMARK   94  A    between atoms: _264  and  _265
REMARK   95  A    between atoms: _265  and  _266
REMARK   96  A    between atoms: _266  and  _267
REMARK   97  A    between atoms: _271  and  _273
REMARK   98  A    between atoms: _273  and  _274
REMARK   99  A    between atoms: _273  and  _276
REMARK  100  A    between atoms: _279  and  _281
REMARK  101  A    between atoms: _281  and  _282
REMARK  102  A    between atoms: _281  and  _284
REMARK  103  A    between atoms: _284  and  _285
REMARK  104  A    between atoms: _285  and  _286
REMARK  105  A    between atoms: _291  and  _293
REMARK  106  A    between atoms: _293  and  _294
REMARK  107  A    between atoms: _293  and  _296
REMARK  108  A    between atoms: _296  and  _297
REMARK  109  A    between atoms: _300  and  _302
REMARK  110  A    between atoms: _302  and  _303
REMARK  111  A    between atoms: _306  and  _308
REMARK  112  A    between atoms: _308  and  _309
REMARK  113  A    between atoms: _308  and  _311
REMARK  114  A    between atoms: _314  and  _316
REMARK  115  A    between atoms: _316  and  _317
REMARK  116  A    between atoms: _316  and  _319
REMARK  117  A    between atoms: _319  and  _320
REMARK  118  A    between atoms: _323  and  _325
REMARK  119  A    between atoms: _325  and  _326
REMARK  120  A    between atoms: _328  and  _330
REMARK  121  A    between atoms: _330  and  _331
REMARK  122  A    between atoms: _333  and  _335
REMARK  123  A    between atoms: _335  and  _336
REMARK  124  A    between atoms: _335  and  _338
REMARK  125  A    between atoms: _338  and  _339
REMARK  126  A    between atoms: _341  and  _343
REMARK  127  A    between atoms: _343  and  _344
REMARK  128  A    between atoms: _343  and  _346
REMARK  129  A    between atoms: _346  and  _347
REMARK  130  A    between atoms: _350  and  _352
REMARK  131  A    between atoms: _352  and  _353
REMARK  132  A    between atoms: _352  and  _355
REMARK  133  A    between atoms: _355  and  _356
REMARK  134  A    between atoms: _359  and  _361
REMARK  135  A    between atoms: _361  and  _362
REMARK  136  A    between atoms: _361  and  _364
REMARK  137  A    between atoms: _364  and  _365
REMARK  138  A    between atoms: _369  and  _370
REMARK  139  A    between atoms: _376  and  _377
REMARK  140  A    between atoms: _382  and  _384
REMARK  141  A    between atoms: _384  and  _385
REMARK  142  A    between atoms: _384  and  _387
REMARK  143  A    between atoms: _387  and  _388
REMARK  144  A    between atoms: _391  and  _393
REMARK  145  A    between atoms: _393  and  _394
REMARK  146  A    between atoms: _393  and  _396
REMARK  147  A    between atoms: _396  and  _397
REMARK  148  A    between atoms: _400  and  _402
REMARK  149  A    between atoms: _402  and  _403
REMARK  150  A    between atoms: _402  and  _405
REMARK  151  A    between atoms: _407  and  _409
REMARK  152  A    between atoms: _409  and  _410
REMARK  153  A    between atoms: _409  and  _412
REMARK  154  A    between atoms: _415  and  _417
REMARK  155  A    between atoms: _417  and  _418
REMARK  156  A    between atoms: _417  and  _420
REMARK  157  A    between atoms: _420  and  _421
REMARK  158  A    between atoms: _431  and  _433
REMARK  159  A    between atoms: _433  and  _434
REMARK  160  A    between atoms: _433  and  _436
REMARK  161  A    between atoms: _436  and  _437
REMARK  162  A    between atoms: _442  and  _444
REMARK  163  A    between atoms: _444  and  _445
REMARK  164  A    between atoms: _444  and  _447
REMARK  165  A    between atoms: _447  and  _448
REMARK  166  A    between atoms: _448  and  _449
REMARK  167  A    between atoms: _449  and  _450
REMARK                            x       y       z     vdW  Elec       q    Type
REMARK                         _______ _______ _______ _____ _____    ______ ____
ROOT
ATOM      1  CB  ASN A   1      12.739   3.384   7.098  0.00  0.00    +0.110 C 
ENDROOT
BRANCH   1   2
ATOM      2  CG  ASN A   1      13.790   3.146   8.163  0.00  0.00    +0.221 C 
ATOM      3  OD1 ASN A   1      13.876   2.067   8.732  0.00  0.00    -0.275 OA
ATOM      4  ND2 ASN A   1      14.599   4.170   8.436  0.00  0.00    -0.329 N 
ATOM      5 HD21 ASN A   1      15.340   4.069   9.159  0.00  0.00    +0.145 HD
ATOM      6 HD22 ASN A   1      14.489   5.070   7.926  0.00  0.00    +0.145 HD
ENDBRANCH   1   2
BRANCH   1   7
ATOM      7  CA  ASN A   1      11.977   2.107   6.695  0.00  0.00    +0.142 C 
BRANCH   7   8
ATOM      8  N   ASN A   1      12.825   1.172   5.965  0.00  0.00    -0.239 NA
ATOM      9  H   ASN A   1      13.403   1.535   5.180  0.00  0.00    +0.142 HD
ENDBRANCH   7   8
BRANCH   7  10
ATOM     10  C   ASN A   1      10.787   2.540   5.863  0.00  0.00    +0.225 C 
ATOM     11  O   ASN A   1      10.940   2.906   4.702  0.00  0.00    -0.287 OA
ENDBRANCH   7  10
ENDBRANCH   1   7
TORSDOF 4
REMARK  Name = ../refined-set-2016/4rfc/4rfc_pocket.pdb
REMARK  167 active torsions:
REMARK  status: ('A' for Active; 'I' for Inactive)
REMARK    1  A    between atoms: _1  and  _3
REMARK    2  A    between atoms: _3  and  _4
REMARK    3  A    between atoms: _3  and  _6
REMARK    4  A    between atoms: _6  and  _7
REMARK    5  A    between atoms: _17  and  _19
REMARK    6  A    between atoms: _19  and  _20
REMARK    7  A    between atoms: _19  and  _22
REMARK    8  A    between atoms: _22  and  _23
REMARK    9  A    between atoms: _28  and  _29
REMARK   10  A    between atoms: _31  and  _33
REMARK   11  A    between atoms: _33  and  _34
REMARK   12  A    between atoms: _33  and  _36
REMARK   13  A    between atoms: _36  and  _37
REMARK   14  A    between atoms: _43  and  _45
REMARK   15  A    between atoms: _45  and  _46
REMARK   16  A    between atoms: _45  and  _48
REMARK   17  A    between atoms: _48  and  _49
REMARK   18  A    between atoms: _52  and  _53
REMARK   19  A    between atoms: _58  and  _60
REMARK   20  A    between atoms: _60  and  _61
REMARK   21  A    between atoms: _60  and  _63
REMARK   22  A    between atoms: _63  and  _64
REMARK   23  A    between atoms: _69  and  _71
REMARK   24  A    between atoms: _71  and  _72
REMARK   25  A    between atoms: _75  and  _77
REMARK   26  A    between atoms: _77  and  _78
REMARK   27  A    between atoms: _77  and  _80
REMARK   28  A    between atoms: _80  and  _81
REMARK   29  A    between atoms: _86  and  _88
REMARK   30  A    between atoms: _88  and  _89
REMARK   31  A    between atoms: _88  and  _91
REMARK   32  A    between atoms: _91  and  _92
REMARK   33  A    between atoms: _95  and  _97
REMARK   34  A    between atoms: _97  and  _98
REMARK   35  A    between atoms: _97  and  _100
REMARK   36  A    between atoms: _100  and  _101
REMARK   37  A    between atoms: _101  and  _102
REMARK   38  A    between atoms: _107  and  _109
REMARK   39  A    between atoms: _109  and  _110
REMARK   40  A    between atoms: _109  and  _112
REMARK   41  A    between atoms: _112  and  _113
REMARK   42  A    between atoms: _119  and  _121
REMARK   43  A    between atoms: _132  and  _135
REMARK   44  A    between atoms: _135  and  _136
REMARK   45  A    between atoms: _144  and  _145
REMARK   46  A    between atoms: _153  and  _155
REMARK   47  A    between atoms: _155  and  _156
REMARK   48  A    between atoms: _155  and  _158
REMARK   49  A    between atoms: _158  and  _159
REMARK   50  A    between atoms: _159  and  _160
REMARK   51  A    between atoms: _163  and  _165
REMARK   52  A    between atoms: _165  and  _166
REMARK   53  A    between atoms: _165  and  _168
REMARK   54  A    between atoms: _168  and  _169
REMARK   55  A    between atoms: _174  and  _176
REMARK   56  A    between atoms: _176  and  _177
REMARK   57  A    between atoms: _176  and  _179
REMARK   58  A    between atoms: _179  and  _180
REMARK   59  A    between atoms: _180  and  _181
REMARK   60  A    between atoms: _184  and  _186
REMARK   61  A    between atoms: _186  and  _187
REMARK   62  A    between atoms: _186  and  _189
REMARK   63  A    between atoms: _189  and  _190
REMARK   64  A    between atoms: _193  and  _195
REMARK   65  A    between atoms: _195  and  _196
REMARK   66  A    between atoms: _195  and  _198
REMARK   67  A    between atoms: _198  and  _199
REMARK   68  A    between atoms: _200  and  ZN_459
REMARK   69  A    between atoms: _204  and  _206
REMARK   70  A    between atoms: _206  and  _207
REMARK   71  A    between atoms: _206  and  _209
REMARK   72  A    between atoms: _209  and  _210
REMARK   73  A    between atoms: _213  and  _215
REMARK   74  A    between atoms: _215  and  _216
REMARK   75  A    between atoms: _215  and  _218
REMARK   76  A    between atoms: _221  and  _223
REMARK   77  A    between atoms: _223  and  _224
REMARK   78  A    between atoms: _223  and  _226
REMARK   79  A    between atoms: _226  and  _227
REMARK   80  A    between atoms: _232  and  _234
REMARK   81  A    between atoms: _234  and  _235
REMARK   82  A    between atoms: _234  and  _237
REMARK   83  A    between atoms: _237  and  _238
REMARK   84  A    between atoms: _241  and  _243
REMARK   85  A    between atoms: _243  and  _244
REMARK   86  A    between atoms: _243  and  _246
REMARK   87  A    between atoms: _246  and  _247
REMARK   88  A    between atoms: _253  and  _255
REMARK   89  A    between atoms: _255  and  _256
REMARK   90  A    between atoms: _258  and  _260
REMARK   91  A    between atoms: _260  and  _261
REMARK   92  A    between atoms: _260  and  _263
REMARK   93  A    between atoms: _263  and  _264
REMARK   94  A    between atoms: _264  and  _265
REMARK   95  A    between atoms: _265  and  _266
REMARK   96  A    between atoms: _266  and  _267
REMARK   97  A    between atoms: _271  and  _273
REMARK   98  A    between atoms: _273  and  _274
REMARK   99  A    between atoms: _273  and  _276
REMARK  100  A    between atoms: _279  and  _281
REMARK  101  A    between atoms: _281  and  _282
REMARK  102  A    between atoms: _281  and  _284
REMARK  103  A    between atoms: _284  and  _285
REMARK  104  A    between atoms: _285  and  _286
REMARK  105  A    between atoms: _291  and  _293
REMARK  106  A    between atoms: _293  and  _294
REMARK  107  A    between atoms: _293  and  _296
REMARK  108  A    between atoms: _296  and  _297
REMARK  109  A    between atoms: _300  and  _302
REMARK  110  A    between atoms: _302  and  _303
REMARK  111  A    between atoms: _306  and  _308
REMARK  112  A    between atoms: _308  and  _309
REMARK  113  A    between atoms: _308  and  _311
REMARK  114  A    between atoms: _314  and  _316
REMARK  115  A    between atoms: _316  and  _317
REMARK  116  A    between atoms: _316  and  _319
REMARK  117  A    between atoms: _319  and  _320
REMARK  118  A    between atoms: _323  and  _325
REMARK  119  A    between atoms: _325  and  _326
REMARK  120  A    between atoms: _328  and  _330
REMARK  121  A    between atoms: _330  and  _331
REMARK  122  A    between atoms: _333  and  _335
REMARK  123  A    between atoms: _335  and  _336
REMARK  124  A    between atoms: _335  and  _338
REMARK  125  A    between atoms: _338  and  _339
REMARK  126  A    between atoms: _341  and  _343
REMARK  127  A    between atoms: _343  and  _344
REMARK  128  A    between atoms: _343  and  _346
REMARK  129  A    between atoms: _346  and  _347
REMARK  130  A    between atoms: _350  and  _352
REMARK  131  A    between atoms: _352  and  _353
REMARK  132  A    between atoms: _352  and  _355
REMARK  133  A    between atoms: _355  and  _356
REMARK  134  A    between atoms: _359  and  _361
REMARK  135  A    between atoms: _361  and  _362
REMARK  136  A    between atoms: _361  and  _364
REMARK  137  A    between atoms: _364  and  _365
REMARK  138  A    between atoms: _369  and  _370
REMARK  139  A    between atoms: _376  and  _377
REMARK  140  A    between atoms: _382  and  _384
REMARK  141  A    between atoms: _384  and  _385
REMARK  142  A    between atoms: _384  and  _387
REMARK  143  A    between atoms: _387  and  _388
REMARK  144  A    between atoms: _391  and  _393
REMARK  145  A    between atoms: _393  and  _394
REMARK  146  A    between atoms: _393  and  _396
REMARK  147  A    between atoms: _396  and  _397
REMARK  148  A    between atoms: _400  and  _402
REMARK  149  A    between atoms: _402  and  _403
REMARK  150  A    between atoms: _402  and  _405
REMARK  151  A    between atoms: _407  and  _409
REMARK  152  A    between atoms: _409  and  _410
REMARK  153  A    between atoms: _409  and  _412
REMARK  154  A    between atoms: _415  and  _417
REMARK  155  A    between atoms: _417  and  _418
REMARK  156  A    between atoms: _417  and  _420
REMARK  157  A    between atoms: _420  and  _421
REMARK  158  A    between atoms: _431  and  _433
REMARK  159  A    between atoms: _433  and  _434
REMARK  160  A    between atoms: _433  and  _436
REMARK  161  A    between atoms: _436  and  _437
REMARK  162  A    between atoms: _442  and  _444
REMARK  163  A    between atoms: _444  and  _445
REMARK  164  A    between atoms: _444  and  _447
REMARK  165  A    between atoms: _447  and  _448
REMARK  166  A    between atoms: _448  and  _449
REMARK  167  A    between atoms: _449  and  _450
REMARK                            x       y       z     vdW  Elec       q    Type
REMARK                         _______ _______ _______ _____ _____    ______ ____
ROOT
ATOM      1  C   UNK A   4      10.966  -0.709  10.368  0.00  0.00    +0.000 C 
ATOM      2  C   UNK A   4      10.913  -2.011  11.138  0.00  0.00    +0.000 C 
ATOM      3  O   UNK A   4      10.268  -2.102  12.183  0.00  0.00    +0.000 OA
ATOM      4  N   VAL A   5      11.603  -3.019  10.624  0.00  0.00    +0.000 N 
ATOM      5  CA  VAL A   5      11.630  -4.320  11.276  0.00  0.00    +0.000 C 
ATOM      6  C   VAL A   5      13.064  -4.791  11.497  0.00  0.00    +0.000 C 
ATOM      7  N   UNK A   6      13.209  -5.750  12.404  0.00  0.00    +0.000 N 
ATOM      8  H   UNK A   6      12.423  -5.940  13.058  0.00  0.00    +0.000 HD
ATOM      9  C   UNK A   6      14.421  -6.547  12.523  0.00  0.00    +0.000 C 
ATOM     10  C   UNK A   6      15.104  -6.317  13.881  0.00  0.00    +0.000 C 
ATOM     11  C   UNK A   6      15.398  -4.875  14.162  0.00  0.00    +0.000 A 
ATOM     12  C   UNK A   6      14.605  -3.878  14.625  0.00  0.00    +0.000 A 
ATOM     13  N   UNK A   6      15.369  -2.741  14.671  0.00  0.00    +0.000 N 
ATOM     14 ZN   UNK A   6      14.555  -0.958  15.370  0.00  0.00    +0.000 Zn
ATOM     15  N   UNK A   4      13.895  -0.098  13.708  0.00  0.00    +0.000 N 
ATOM     16  C   UNK A   4      13.367   1.110  13.607  0.00  0.00    +0.000 A 
ATOM     17  N   UNK A   4      12.804   1.218  12.415  0.00  0.00    +0.000 NA
ATOM     18  C   UNK A   4      12.965   0.037  11.724  0.00  0.00    +0.000 A 
ATOM     19  C   UNK A   4      13.648  -0.792  12.548  0.00  0.00    +0.000 A 
ATOM     20  C   UNK A   6      16.593  -3.027  14.264  0.00  0.00    +0.000 A 
ATOM     21  N   UNK A   6      16.639  -4.311  13.948  0.00  0.00    +0.000 NA
ATOM     22  O   VAL A   5      13.997  -4.305  10.862  0.00  0.00    +0.000 OA
ATOM     23  H   VAL A   5      12.134  -2.878   9.741  0.00  0.00    +0.000 HD
ATOM     24  C   UNK A   4      12.403  -0.177  10.354  0.00  0.00    +0.000 C 
ENDROOT
BRANCH  14  25
ATOM     25  N   UNK A   6      13.112  -1.691  16.591  0.00  0.00    +0.000 N 
ATOM     26  C   UNK A   6      13.462  -2.595  17.490  0.00  0.00    +0.000 A 
ATOM     27  N   UNK A   6      12.372  -3.003  18.117  0.00  0.00    +0.000 NA
ATOM     28  C   UNK A   6      11.285  -2.345  17.597  0.00  0.00    +0.000 A 
ATOM     29  C   UNK A   6      11.748  -1.509  16.636  0.00  0.00    +0.000 A 
BRANCH  29  30
ATOM     30  C   UNK A   6      11.026  -0.550  15.745  0.00  0.00    +0.000 C 
BRANCH  30  31
ATOM     31  C   UNK A   6       9.520  -0.801  15.675  0.00  0.00    +0.000 C 
BRANCH  31  32
ATOM     32  C   UNK A   6       8.822   0.398  15.032  0.00  0.00    +0.000 C 
ATOM     33  N   UNK A   4       7.807   0.930  15.704  0.00  0.00    +0.000 N 
ATOM     34  H   UNK A   4       7.445   0.448  16.552  0.00  0.00    +0.000 HD
ATOM     35  O   UNK A   6       9.190   0.818  13.939  0.00  0.00    +0.000 OA
BRANCH  33  36
ATOM     36  C   UNK A   4       7.194   2.177  15.271  0.00  0.00    +0.000 C 
BRANCH  36  37
ATOM     37  C   UNK A   4       7.804   3.326  16.078  0.00  0.00    +0.000 C 
ATOM     38  O   UNK A   4       7.675   3.377  17.295  0.00  0.00    +0.000 OA
ATOM     39  N   VAL A   5       8.503   4.210  15.383  0.00  0.00    +0.000 N 
ATOM     40  H   VAL A   5       8.435   4.191  14.345  0.00  0.00    +0.000 HD
BRANCH  39  41
ATOM     41  CA  VAL A   5       9.364   5.209  16.006  0.00  0.00    +0.000 C 
BRANCH  41  42
ATOM     42  C   VAL A   5       8.642   6.550  16.089  0.00  0.00    +0.000 C 
ATOM     43  N   UNK A   6       8.555   7.114  17.297  0.00  0.00    +0.000 N 
ATOM     44  H   UNK A   6       8.974   6.626  18.114  0.00  0.00    +0.000 HD
ATOM     45  O   VAL A   5       8.166   7.058  15.071  0.00  0.00    +0.000 OA
BRANCH  43  46
ATOM     46  C   UNK A   6       7.885   8.401  17.503  0.00  0.00    +0.000 C 
BRANCH  46  47
ATOM     47  C   UNK A   6       8.808   9.382  18.218  0.00  0.00    +0.000 C 
ATOM     48  O   UNK A   6       9.597   8.969  19.058  0.00  0.00    +0.000 OA
ENDBRANCH  46  47
BRANCH  46  49
ATOM     49  C   UNK A   6       6.603   8.250  18.335  0.00  0.00    +0.000 C 
BRANCH  49  50
ATOM     50  C   UNK A   6       5.709   7.129  17.907  0.00  0.00    +0.000 A 
ATOM     51  N   UNK A   6       6.020   5.803  18.129  0.00  0.00    +0.000 NA
ATOM     52  C   UNK A   6       5.034   5.043  17.684  0.00  0.00    +0.000 A 
ATOM     53  N   UNK A   6       4.094   5.826  17.183  0.00  0.00    +0.000 NA
ATOM     54  C   UNK A   6       4.488   7.138  17.320  0.00  0.00    +0.000 A 
ENDBRANCH  49  50
ENDBRANCH  46  49
ENDBRANCH  43  46
ENDBRANCH  41  42
BRANCH  41  55
ATOM     55  CB  VAL A   5      10.690   5.370  15.218  0.00  0.00    +0.000 C 
ATOM     56  CG2 VAL A   5      11.627   6.379  15.900  0.00  0.00    +0.000 C 
ATOM     57  CG1 VAL A   5      11.380   4.007  15.041  0.00  0.00    +0.000 C 
ENDBRANCH  41  55
ENDBRANCH  39  41
ENDBRANCH  36  37
BRANCH  36  58
ATOM     58  C   UNK A   4       5.672   2.120  15.434  0.00  0.00    +0.000 C 
BRANCH  58  59
ATOM     59  C   UNK A   4       4.982   1.066  14.554  0.00  0.00    +0.000 C 
ATOM     60  C   UNK A   4       4.214   0.103  15.426  0.00  0.00    +0.000 C 
ATOM     61  C   UNK A   4       4.041   1.717  13.546  0.00  0.00    +0.000 C 
ENDBRANCH  58  59
ENDBRANCH  36  58
ENDBRANCH  33  36
ENDBRANCH  31  32
BRANCH  31  62
ATOM     62  N   UNK A   6       9.250  -2.010  14.920  0.00  0.00    +0.000 N 
ATOM     63  C   LEU A   2       8.619  -3.070  15.424  0.00  0.00    +0.000 C 
ATOM     64  O   LEU A   2       8.216  -3.143  16.583  0.00  0.00    +0.000 OA
ATOM     65  H   UNK A   6       9.567  -2.052  13.930  0.00  0.00    +0.000 HD
BRANCH  63  66
ATOM     66  CA  LEU A   2       8.421  -4.234  14.466  0.00  0.00    +0.000 C 
BRANCH  66  67
ATOM     67  N   LEU A   2       8.811  -5.486  15.104  0.00  0.00    +0.000 N 
ATOM     68  H   LEU A   2       8.142  -5.945  15.755  0.00  0.00    +0.000 HD
ATOM     69  C   GLU A   1       9.985  -6.062  14.886  0.00  0.00    +0.000 C 
ATOM     70  O   GLU A   1      10.830  -5.624  14.095  0.00  0.00    +0.000 OA
BRANCH  69  71
ATOM     71  CA  GLU A   1      10.228  -7.341  15.671  0.00  0.00    +0.000 C 
BRANCH  71  72
ATOM     72  N   GLU A   1      10.743  -8.352  14.776  0.00  0.00    +0.000 NA
ATOM     73  H   GLU A   1      11.393  -8.078  14.012  0.00  0.00    +0.000 HD
ENDBRANCH  71  72
BRANCH  71  74
ATOM     74  CB  GLU A   1      11.202  -7.105  16.839  0.00  0.00    +0.000 C 
BRANCH  74  75
ATOM     75  CG  GLU A   1      10.719  -6.101  17.875  0.00  0.00    +0.000 C 
BRANCH  75  76
ATOM     76  CD  GLU A   1      11.622  -6.062  19.104  0.00  0.00    +0.000 C 
ATOM     77  OE2 GLU A   1      11.724  -4.987  19.730  0.00  0.00    +0.000 OA
ATOM     78  OE1 GLU A   1      12.224  -7.103  19.444  0.00  0.00    +0.000 OA
ENDBRANCH  75  76
ENDBRANCH  74  75
ENDBRANCH  71  74
ENDBRANCH  69  71
ENDBRANCH  66  67
BRANCH  66  79
ATOM     79  CB  LEU A   2       6.961  -4.307  14.007  0.00  0.00    +0.000 C 
BRANCH  79  80
ATOM     80  CG  LEU A   2       6.191  -3.026  13.685  0.00  0.00    +0.000 C 
ATOM     81  CD2 LEU A   2       4.704  -3.375  13.493  0.00  0.00    +0.000 C 
ATOM     82  CD1 LEU A   2       6.748  -2.320  12.450  0.00  0.00    +0.000 C 
ENDBRANCH  79  80
ENDBRANCH  66  79
ENDBRANCH  63  66
ENDBRANCH  31  62
ENDBRANCH  30  31
ENDBRANCH  29  30
ENDBRANCH  14  25
BRANCH   1  84
ATOM     83  C   UNK A   3       9.505   1.247  10.351  0.00  0.00    +0.000 C 
ATOM     84  N   UNK A   4      10.061   0.228  11.005  0.00  0.00    +0.000 N 
ATOM     85  H   UNK A   4       9.837   0.100  12.012  0.00  0.00    +0.000 HD
ATOM     86  O   UNK A   3       9.722   1.500   9.158  0.00  0.00    +0.000 OA
BRANCH  83  87
ATOM     87  C   UNK A   3       8.577   2.114  11.194  0.00  0.00    +0.000 C 
BRANCH  87  90
ATOM     88  C   LEU A   2       8.620   4.524  11.334  0.00  0.00    +0.000 C 
ATOM     89  O   LEU A   2       8.572   4.525  12.571  0.00  0.00    +0.000 OA
ATOM     90  N   UNK A   3       8.435   3.429  10.594  0.00  0.00    +0.000 N 
ATOM     91  H   UNK A   3       8.189   3.517   9.587  0.00  0.00    +0.000 HD
BRANCH  88  92
ATOM     92  CA  LEU A   2       8.865   5.820  10.568  0.00  0.00    +0.000 C 
BRANCH  92  94
ATOM     93  C   GLU A   1       8.445   8.195  10.882  0.00  0.00    +0.000 C 
ATOM     94  N   LEU A   2       8.639   6.989  11.406  0.00  0.00    +0.000 N 
ATOM     95  H   LEU A   2       8.629   6.878  12.440  0.00  0.00    +0.000 HD
ATOM     96  O   GLU A   1       8.476   8.400   9.676  0.00  0.00    +0.000 OA
BRANCH  93  97
ATOM     97  CA  GLU A   1       8.155   9.342  11.855  0.00  0.00    +0.000 C 
BRANCH  97  98
ATOM     98  CB  GLU A   1       9.492   9.938  12.420  0.00  0.00    +0.000 C 
ATOM     99  CG2 GLU A   1      10.210   8.960  13.350  0.00  0.00    +0.000 C 
BRANCH  98 100
ATOM    100  CG1 GLU A   1      10.417  10.397  11.291  0.00  0.00    +0.000 C 
ATOM    101  CD1 GLU A   1      11.560  11.293  11.767  0.00  0.00    +0.000 C 
ENDBRANCH  98 100
ENDBRANCH  97  98
BRANCH  97 102
ATOM    102  N   GLU A   1       7.271   8.907  12.935  0.00  0.00    +0.000 NA
ATOM    103  H   GLU A   1       7.610   8.202  13.621  0.00  0.00    +0.000 HD
ENDBRANCH  97 102
ENDBRANCH  93  97
ENDBRANCH  92  94
BRANCH  92 104
ATOM    104  CB  LEU A   2      10.298   5.825  10.005  0.00  0.00    +0.000 C 
BRANCH 104 105
ATOM    105  CG  LEU A   2      11.381   5.983  11.085  0.00  0.00    +0.000 C 
BRANCH 105 106
ATOM    106  CD  LEU A   2      12.152   4.694  11.383  0.00  0.00    +0.000 C 
ATOM    107  NE2 LEU A   2      13.434   4.840  11.656  0.00  0.00    +0.000 N 
ATOM    108 HE21 LEU A   2      14.014   4.009  11.888  0.00  0.00    +0.000 HD
ATOM    109 HE22 LEU A   2      13.865   5.786  11.639  0.00  0.00    +0.000 HD
ATOM    110  OE1 LEU A   2      11.596   3.593  11.390  0.00  0.00    +0.000 OA
ENDBRANCH 105 106
ENDBRANCH 104 105
ENDBRANCH  92 104
ENDBRANCH  88  92
ENDBRANCH  87  90
BRANCH  87 111
ATOM    111  C   UNK A   3       7.218   1.415  11.428  0.00  0.00    +0.000 C 
BRANCH 111 112
ATOM    112  C   UNK A   3       6.480   0.990  10.172  0.00  0.00    +0.000 A 
ATOM    113  C   UNK A   3       5.371   1.699   9.741  0.00  0.00    +0.000 A 
ATOM    114  C   UNK A   3       4.654   1.298   8.619  0.00  0.00    +0.000 A 
ATOM    115  C   UNK A   3       5.037   0.171   7.921  0.00  0.00    +0.000 A 
ATOM    116  C   UNK A   3       6.133  -0.568   8.349  0.00  0.00    +0.000 A 
ATOM    117  C   UNK A   3       6.839  -0.169   9.480  0.00  0.00    +0.000 A 
ENDBRANCH 111 112
ENDBRANCH  87 111
ENDBRANCH  83  87
ENDBRANCH   1  84
BRANCH   9 118
ATOM    118  C   UNK A   6      13.983  -7.991  12.368  0.00  0.00    +0.000 C 
ATOM    119  O   UNK A   6      12.933  -8.349  12.870  0.00  0.00    +0.000 OA
ENDBRANCH   9 118
BRANCH   5 120
ATOM    120  CB  VAL A   5      10.910  -5.391  10.448  0.00  0.00    +0.000 C 
BRANCH 120 121
ATOM    121  CG  VAL A   5       9.458  -5.099  10.138  0.00  0.00    +0.000 A 
ATOM    122  CD2 VAL A   5       8.443  -5.729  10.846  0.00  0.00    +0.000 A 
ATOM    123  CE2 VAL A   5       7.111  -5.505  10.528  0.00  0.00    +0.000 A 
ATOM    124  CZ  VAL A   5       6.784  -4.651   9.472  0.00  0.00    +0.000 A 
ATOM    125  CE1 VAL A   5       7.790  -4.034   8.752  0.00  0.00    +0.000 A 
ATOM    126  CD1 VAL A   5       9.116  -4.276   9.078  0.00  0.00    +0.000 A 
ENDBRANCH 120 121
ENDBRANCH   5 120
TORSDOF 42
REMARK  Name = ../refined-set-2016/4rfc/4rfc_pocket.pdb
REMARK  167 active torsions:
REMARK  status: ('A' for Active; 'I' for Inactive)
REMARK    1  A    between atoms: _1  and  _3
REMARK    2  A    between atoms: _3  and  _4
REMARK    3  A    between atoms: _3  and  _6
REMARK    4  A    between atoms: _6  and  _7
REMARK    5  A    between atoms: _17  and  _19
REMARK    6  A    between atoms: _19  and  _20
REMARK    7  A    between atoms: _19  and  _22
REMARK    8  A    between atoms: _22  and  _23
REMARK    9  A    between atoms: _28  and  _29
REMARK   10  A    between atoms: _31  and  _33
REMARK   11  A    between atoms: _33  and  _34
REMARK   12  A    between atoms: _33  and  _36
REMARK   13  A    between atoms: _36  and  _37
REMARK   14  A    between atoms: _43  and  _45
REMARK   15  A    between atoms: _45  and  _46
REMARK   16  A    between atoms: _45  and  _48
REMARK   17  A    between atoms: _48  and  _49
REMARK   18  A    between atoms: _52  and  _53
REMARK   19  A    between atoms: _58  and  _60
REMARK   20  A    between atoms: _60  and  _61
REMARK   21  A    between atoms: _60  and  _63
REMARK   22  A    between atoms: _63  and  _64
REMARK   23  A    between atoms: _69  and  _71
REMARK   24  A    between atoms: _71  and  _72
REMARK   25  A    between atoms: _75  and  _77
REMARK   26  A    between atoms: _77  and  _78
REMARK   27  A    between atoms: _77  and  _80
REMARK   28  A    between atoms: _80  and  _81
REMARK   29  A    between atoms: _86  and  _88
REMARK   30  A    between atoms: _88  and  _89
REMARK   31  A    between atoms: _88  and  _91
REMARK   32  A    between atoms: _91  and  _92
REMARK   33  A    between atoms: _95  and  _97
REMARK   34  A    between atoms: _97  and  _98
REMARK   35  A    between atoms: _97  and  _100
REMARK   36  A    between atoms: _100  and  _101
REMARK   37  A    between atoms: _101  and  _102
REMARK   38  A    between atoms: _107  and  _109
REMARK   39  A    between atoms: _109  and  _110
REMARK   40  A    between atoms: _109  and  _112
REMARK   41  A    between atoms: _112  and  _113
REMARK   42  A    between atoms: _119  and  _121
REMARK   43  A    between atoms: _132  and  _135
REMARK   44  A    between atoms: _135  and  _136
REMARK   45  A    between atoms: _144  and  _145
REMARK   46  A    between atoms: _153  and  _155
REMARK   47  A    between atoms: _155  and  _156
REMARK   48  A    between atoms: _155  and  _158
REMARK   49  A    between atoms: _158  and  _159
REMARK   50  A    between atoms: _159  and  _160
REMARK   51  A    between atoms: _163  and  _165
REMARK   52  A    between atoms: _165  and  _166
REMARK   53  A    between atoms: _165  and  _168
REMARK   54  A    between atoms: _168  and  _169
REMARK   55  A    between atoms: _174  and  _176
REMARK   56  A    between atoms: _176  and  _177
REMARK   57  A    between atoms: _176  and  _179
REMARK   58  A    between atoms: _179  and  _180
REMARK   59  A    between atoms: _180  and  _181
REMARK   60  A    between atoms: _184  and  _186
REMARK   61  A    between atoms: _186  and  _187
REMARK   62  A    between atoms: _186  and  _189
REMARK   63  A    between atoms: _189  and  _190
REMARK   64  A    between atoms: _193  and  _195
REMARK   65  A    between atoms: _195  and  _196
REMARK   66  A    between atoms: _195  and  _198
REMARK   67  A    between atoms: _198  and  _199
REMARK   68  A    between atoms: _200  and  ZN_459
REMARK   69  A    between atoms: _204  and  _206
REMARK   70  A    between atoms: _206  and  _207
REMARK   71  A    between atoms: _206  and  _209
REMARK   72  A    between atoms: _209  and  _210
REMARK   73  A    between atoms: _213  and  _215
REMARK   74  A    between atoms: _215  and  _216
REMARK   75  A    between atoms: _215  and  _218
REMARK   76  A    between atoms: _221  and  _223
REMARK   77  A    between atoms: _223  and  _224
REMARK   78  A    between atoms: _223  and  _226
REMARK   79  A    between atoms: _226  and  _227
REMARK   80  A    between atoms: _232  and  _234
REMARK   81  A    between atoms: _234  and  _235
REMARK   82  A    between atoms: _234  and  _237
REMARK   83  A    between atoms: _237  and  _238
REMARK   84  A    between atoms: _241  and  _243
REMARK   85  A    between atoms: _243  and  _244
REMARK   86  A    between atoms: _243  and  _246
REMARK   87  A    between atoms: _246  and  _247
REMARK   88  A    between atoms: _253  and  _255
REMARK   89  A    between atoms: _255  and  _256
REMARK   90  A    between atoms: _258  and  _260
REMARK   91  A    between atoms: _260  and  _261
REMARK   92  A    between atoms: _260  and  _263
REMARK   93  A    between atoms: _263  and  _264
REMARK   94  A    between atoms: _264  and  _265
REMARK   95  A    between atoms: _265  and  _266
REMARK   96  A    between atoms: _266  and  _267
REMARK   97  A    between atoms: _271  and  _273
REMARK   98  A    between atoms: _273  and  _274
REMARK   99  A    between atoms: _273  and  _276
REMARK  100  A    between atoms: _279  and  _281
REMARK  101  A    between atoms: _281  and  _282
REMARK  102  A    between atoms: _281  and  _284
REMARK  103  A    between atoms: _284  and  _285
REMARK  104  A    between atoms: _285  and  _286
REMARK  105  A    between atoms: _291  and  _293
REMARK  106  A    between atoms: _293  and  _294
REMARK  107  A    between atoms: _293  and  _296
REMARK  108  A    between atoms: _296  and  _297
REMARK  109  A    between atoms: _300  and  _302
REMARK  110  A    between atoms: _302  and  _303
REMARK  111  A    between atoms: _306  and  _308
REMARK  112  A    between atoms: _308  and  _309
REMARK  113  A    between atoms: _308  and  _311
REMARK  114  A    between atoms: _314  and  _316
REMARK  115  A    between atoms: _316  and  _317
REMARK  116  A    between atoms: _316  and  _319
REMARK  117  A    between atoms: _319  and  _320
REMARK  118  A    between atoms: _323  and  _325
REMARK  119  A    between atoms: _325  and  _326
REMARK  120  A    between atoms: _328  and  _330
REMARK  121  A    between atoms: _330  and  _331
REMARK  122  A    between atoms: _333  and  _335
REMARK  123  A    between atoms: _335  and  _336
REMARK  124  A    between atoms: _335  and  _338
REMARK  125  A    between atoms: _338  and  _339
REMARK  126  A    between atoms: _341  and  _343
REMARK  127  A    between atoms: _343  and  _344
REMARK  128  A    between atoms: _343  and  _346
REMARK  129  A    between atoms: _346  and  _347
REMARK  130  A    between atoms: _350  and  _352
REMARK  131  A    between atoms: _352  and  _353
REMARK  132  A    between atoms: _352  and  _355
REMARK  133  A    between atoms: _355  and  _356
REMARK  134  A    between atoms: _359  and  _361
REMARK  135  A    between atoms: _361  and  _362
REMARK  136  A    between atoms: _361  and  _364
REMARK  137  A    between atoms: _364  and  _365
REMARK  138  A    between atoms: _369  and  _370
REMARK  139  A    between atoms: _376  and  _377
REMARK  140  A    between atoms: _382  and  _384
REMARK  141  A    between atoms: _384  and  _385
REMARK  142  A    between atoms: _384  and  _387
REMARK  143  A    between atoms: _387  and  _388
REMARK  144  A    between atoms: _391  and  _393
REMARK  145  A    between atoms: _393  and  _394
REMARK  146  A    between atoms: _393  and  _396
REMARK  147  A    between atoms: _396  and  _397
REMARK  148  A    between atoms: _400  and  _402
REMARK  149  A    between atoms: _402  and  _403
REMARK  150  A    between atoms: _402  and  _405
REMARK  151  A    between atoms: _407  and  _409
REMARK  152  A    between atoms: _409  and  _410
REMARK  153  A    between atoms: _409  and  _412
REMARK  154  A    between atoms: _415  and  _417
REMARK  155  A    between atoms: _417  and  _418
REMARK  156  A    between atoms: _417  and  _420
REMARK  157  A    between atoms: _420  and  _421
REMARK  158  A    between atoms: _431  and  _433
REMARK  159  A    between atoms: _433  and  _434
REMARK  160  A    between atoms: _433  and  _436
REMARK  161  A    between atoms: _436  and  _437
REMARK  162  A    between atoms: _442  and  _444
REMARK  163  A    between atoms: _444  and  _445
REMARK  164  A    between atoms: _444  and  _447
REMARK  165  A    between atoms: _447  and  _448
REMARK  166  A    between atoms: _448  and  _449
REMARK  167  A    between atoms: _449  and  _450
REMARK                            x       y       z     vdW  Elec       q    Type
REMARK                         _______ _______ _______ _____ _____    ______ ____
ROOT
ATOM      1  C   GLU A   1      15.410  -7.936  20.984  0.00  0.00    +0.238 C 
ATOM      2  O   GLU A   1      16.230  -8.471  21.737  0.00  0.00    -0.274 OA
ATOM      3  N   HIS A   2      14.223  -7.511  21.406  0.00  0.00    -0.298 N 
ATOM      4  H   HIS A   2      13.630  -6.921  20.788  0.00  0.00    +0.150 HD
ENDROOT
BRANCH   1   5
ATOM      5  CA  GLU A   1      15.717  -7.759  19.500  0.00  0.00    +0.145 C 
BRANCH   5   6
ATOM      6  N   GLU A   1      14.678  -8.391  18.710  0.00  0.00    -0.238 NA
ATOM      7  H   GLU A   1      13.821  -7.852  18.473  0.00  0.00    +0.142 HD
ENDBRANCH   5   6
BRANCH   5   8
ATOM      8  CB  GLU A   1      15.834  -6.293  19.112  0.00  0.00    +0.038 C 
BRANCH   8   9
ATOM      9  CG  GLU A   1      16.204  -6.109  17.644  0.00  0.00    +0.116 C 
BRANCH   9  10
ATOM     10  CD  GLU A   1      16.902  -4.793  17.393  0.00  0.00    +0.365 C 
ATOM     11  OE2 GLU A   1      16.289  -3.739  17.658  0.00  0.00    -0.246 OA
ATOM     12  OE1 GLU A   1      18.060  -4.810  16.934  0.00  0.00    -0.246 OA
ENDBRANCH   9  10
ENDBRANCH   8   9
ENDBRANCH   5   8
ENDBRANCH   1   5
BRANCH   3  13
ATOM     13  CA  HIS A   2      13.756  -7.874  22.734  0.00  0.00    +0.143 C 
BRANCH  13  14
ATOM     14  C   HIS A   2      13.462  -9.365  22.769  0.00  0.00    +0.227 C 
ATOM     15  O   HIS A   2      13.123  -9.970  21.756  0.00  0.00    -0.286 OA
ENDBRANCH  13  14
BRANCH  13  16
ATOM     16  CB  HIS A   2      12.530  -7.059  23.136  0.00  0.00    +0.075 C 
BRANCH  16  17
ATOM     17  CG  HIS A   2      12.840  -5.611  23.342  0.00  0.00    +0.082 A 
ATOM     18  CD2 HIS A   2      13.319  -4.944  24.421  0.00  0.00    +0.115 A 
ATOM     19  NE2 HIS A   2      13.471  -3.631  24.050  0.00  0.00    -0.221 NA
ATOM     20  CE1 HIS A   2      13.131  -3.503  22.781  0.00  0.00    +0.199 A 
ATOM     21  ND1 HIS A   2      12.750  -4.684  22.329  0.00  0.00    -0.227 NA
ENDBRANCH  16  17
ENDBRANCH  13  16
ENDBRANCH   3  13
TORSDOF 9
REMARK  Name = ../refined-set-2016/4rfc/4rfc_pocket.pdb
REMARK  167 active torsions:
REMARK  status: ('A' for Active; 'I' for Inactive)
REMARK    1  A    between atoms: _1  and  _3
REMARK    2  A    between atoms: _3  and  _4
REMARK    3  A    between atoms: _3  and  _6
REMARK    4  A    between atoms: _6  and  _7
REMARK    5  A    between atoms: _17  and  _19
REMARK    6  A    between atoms: _19  and  _20
REMARK    7  A    between atoms: _19  and  _22
REMARK    8  A    between atoms: _22  and  _23
REMARK    9  A    between atoms: _28  and  _29
REMARK   10  A    between atoms: _31  and  _33
REMARK   11  A    between atoms: _33  and  _34
REMARK   12  A    between atoms: _33  and  _36
REMARK   13  A    between atoms: _36  and  _37
REMARK   14  A    between atoms: _43  and  _45
REMARK   15  A    between atoms: _45  and  _46
REMARK   16  A    between atoms: _45  and  _48
REMARK   17  A    between atoms: _48  and  _49
REMARK   18  A    between atoms: _52  and  _53
REMARK   19  A    between atoms: _58  and  _60
REMARK   20  A    between atoms: _60  and  _61
REMARK   21  A    between atoms: _60  and  _63
REMARK   22  A    between atoms: _63  and  _64
REMARK   23  A    between atoms: _69  and  _71
REMARK   24  A    between atoms: _71  and  _72
REMARK   25  A    between atoms: _75  and  _77
REMARK   26  A    between atoms: _77  and  _78
REMARK   27  A    between atoms: _77  and  _80
REMARK   28  A    between atoms: _80  and  _81
REMARK   29  A    between atoms: _86  and  _88
REMARK   30  A    between atoms: _88  and  _89
REMARK   31  A    between atoms: _88  and  _91
REMARK   32  A    between atoms: _91  and  _92
REMARK   33  A    between atoms: _95  and  _97
REMARK   34  A    between atoms: _97  and  _98
REMARK   35  A    between atoms: _97  and  _100
REMARK   36  A    between atoms: _100  and  _101
REMARK   37  A    between atoms: _101  and  _102
REMARK   38  A    between atoms: _107  and  _109
REMARK   39  A    between atoms: _109  and  _110
REMARK   40  A    between atoms: _109  and  _112
REMARK   41  A    between atoms: _112  and  _113
REMARK   42  A    between atoms: _119  and  _121
REMARK   43  A    between atoms: _132  and  _135
REMARK   44  A    between atoms: _135  and  _136
REMARK   45  A    between atoms: _144  and  _145
REMARK   46  A    between atoms: _153  and  _155
REMARK   47  A    between atoms: _155  and  _156
REMARK   48  A    between atoms: _155  and  _158
REMARK   49  A    between atoms: _158  and  _159
REMARK   50  A    between atoms: _159  and  _160
REMARK   51  A    between atoms: _163  and  _165
REMARK   52  A    between atoms: _165  and  _166
REMARK   53  A    between atoms: _165  and  _168
REMARK   54  A    between atoms: _168  and  _169
REMARK   55  A    between atoms: _174  and  _176
REMARK   56  A    between atoms: _176  and  _177
REMARK   57  A    between atoms: _176  and  _179
REMARK   58  A    between atoms: _179  and  _180
REMARK   59  A    between atoms: _180  and  _181
REMARK   60  A    between atoms: _184  and  _186
REMARK   61  A    between atoms: _186  and  _187
REMARK   62  A    between atoms: _186  and  _189
REMARK   63  A    between atoms: _189  and  _190
REMARK   64  A    between atoms: _193  and  _195
REMARK   65  A    between atoms: _195  and  _196
REMARK   66  A    between atoms: _195  and  _198
REMARK   67  A    between atoms: _198  and  _199
REMARK   68  A    between atoms: _200  and  ZN_459
REMARK   69  A    between atoms: _204  and  _206
REMARK   70  A    between atoms: _206  and  _207
REMARK   71  A    between atoms: _206  and  _209
REMARK   72  A    between atoms: _209  and  _210
REMARK   73  A    between atoms: _213  and  _215
REMARK   74  A    between atoms: _215  and  _216
REMARK   75  A    between atoms: _215  and  _218
REMARK   76  A    between atoms: _221  and  _223
REMARK   77  A    between atoms: _223  and  _224
REMARK   78  A    between atoms: _223  and  _226
REMARK   79  A    between atoms: _226  and  _227
REMARK   80  A    between atoms: _232  and  _234
REMARK   81  A    between atoms: _234  and  _235
REMARK   82  A    between atoms: _234  and  _237
REMARK   83  A    between atoms: _237  and  _238
REMARK   84  A    between atoms: _241  and  _243
REMARK   85  A    between atoms: _243  and  _244
REMARK   86  A    between atoms: _243  and  _246
REMARK   87  A    between atoms: _246  and  _247
REMARK   88  A    between atoms: _253  and  _255
REMARK   89  A    between atoms: _255  and  _256
REMARK   90  A    between atoms: _258  and  _260
REMARK   91  A    between atoms: _260  and  _261
REMARK   92  A    between atoms: _260  and  _263
REMARK   93  A    between atoms: _263  and  _264
REMARK   94  A    between atoms: _264  and  _265
REMARK   95  A    between atoms: _265  and  _266
REMARK   96  A    between atoms: _266  and  _267
REMARK   97  A    between atoms: _271  and  _273
REMARK   98  A    between atoms: _273  and  _274
REMARK   99  A    between atoms: _273  and  _276
REMARK  100  A    between atoms: _279  and  _281
REMARK  101  A    between atoms: _281  and  _282
REMARK  102  A    between atoms: _281  and  _284
REMARK  103  A    between atoms: _284  and  _285
REMARK  104  A    between atoms: _285  and  _286
REMARK  105  A    between atoms: _291  and  _293
REMARK  106  A    between atoms: _293  and  _294
REMARK  107  A    between atoms: _293  and  _296
REMARK  108  A    between atoms: _296  and  _297
REMARK  109  A    between atoms: _300  and  _302
REMARK  110  A    between atoms: _302  and  _303
REMARK  111  A    between atoms: _306  and  _308
REMARK  112  A    between atoms: _308  and  _309
REMARK  113  A    between atoms: _308  and  _311
REMARK  114  A    between atoms: _314  and  _316
REMARK  115  A    between atoms: _316  and  _317
REMARK  116  A    between atoms: _316  and  _319
REMARK  117  A    between atoms: _319  and  _320
REMARK  118  A    between atoms: _323  and  _325
REMARK  119  A    between atoms: _325  and  _326
REMARK  120  A    between atoms: _328  and  _330
REMARK  121  A    between atoms: _330  and  _331
REMARK  122  A    between atoms: _333  and  _335
REMARK  123  A    between atoms: _335  and  _336
REMARK  124  A    between atoms: _335  and  _338
REMARK  125  A    between atoms: _338  and  _339
REMARK  126  A    between atoms: _341  and  _343
REMARK  127  A    between atoms: _343  and  _344
REMARK  128  A    between atoms: _343  and  _346
REMARK  129  A    between atoms: _346  and  _347
REMARK  130  A    between atoms: _350  and  _352
REMARK  131  A    between atoms: _352  and  _353
REMARK  132  A    between atoms: _352  and  _355
REMARK  133  A    between atoms: _355  and  _356
REMARK  134  A    between atoms: _359  and  _361
REMARK  135  A    between atoms: _361  and  _362
REMARK  136  A    between atoms: _361  and  _364
REMARK  137  A    between atoms: _364  and  _365
REMARK  138  A    between atoms: _369  and  _370
REMARK  139  A    between atoms: _376  and  _377
REMARK  140  A    between atoms: _382  and  _384
REMARK  141  A    between atoms: _384  and  _385
REMARK  142  A    between atoms: _384  and  _387
REMARK  143  A    between atoms: _387  and  _388
REMARK  144  A    between atoms: _391  and  _393
REMARK  145  A    between atoms: _393  and  _394
REMARK  146  A    between atoms: _393  and  _396
REMARK  147  A    between atoms: _396  and  _397
REMARK  148  A    between atoms: _400  and  _402
REMARK  149  A    between atoms: _402  and  _403
REMARK  150  A    between atoms: _402  and  _405
REMARK  151  A    between atoms: _407  and  _409
REMARK  152  A    between atoms: _409  and  _410
REMARK  153  A    between atoms: _409  and  _412
REMARK  154  A    between atoms: _415  and  _417
REMARK  155  A    between atoms: _417  and  _418
REMARK  156  A    between atoms: _417  and  _420
REMARK  157  A    between atoms: _420  and  _421
REMARK  158  A    between atoms: _431  and  _433
REMARK  159  A    between atoms: _433  and  _434
REMARK  160  A    between atoms: _433  and  _436
REMARK  161  A    between atoms: _436  and  _437
REMARK  162  A    between atoms: _442  and  _444
REMARK  163  A    between atoms: _444  and  _445
REMARK  164  A    between atoms: _444  and  _447
REMARK  165  A    between atoms: _447  and  _448
REMARK  166  A    between atoms: _448  and  _449
REMARK  167  A    between atoms: _449  and  _450
REMARK                            x       y       z     vdW  Elec       q    Type
REMARK                         _______ _______ _______ _____ _____    ______ ____
ROOT
ATOM      1  C   PHE A   2      15.096  14.416  15.768  0.00  0.00    +0.241 C 
ATOM      2  O   PHE A   2      15.527  13.782  16.724  0.00  0.00    -0.273 OA
ATOM      3  N   GLY A   3      15.854  15.235  15.044  0.00  0.00    -0.295 N 
ATOM      4  H   GLY A   3      15.429  15.757  14.251  0.00  0.00    +0.150 HD
ENDROOT
BRANCH   3   5
ATOM      5  CA  GLY A   3      17.263  15.414  15.340  0.00  0.00    +0.176 C 
BRANCH   5   6
ATOM      6  C   GLY A   3      17.492  15.996  16.724  0.00  0.00    +0.243 C 
ATOM      7  O   GLY A   3      18.449  15.638  17.410  0.00  0.00    -0.273 OA
ATOM      8  N   LYS A   4      16.619  16.906  17.133  0.00  0.00    -0.298 N 
ATOM      9  H   LYS A   4      15.867  17.217  16.486  0.00  0.00    +0.150 HD
BRANCH   8  10
ATOM     10  CA  LYS A   4      16.691  17.479  18.471  0.00  0.00    +0.137 C 
BRANCH  10  11
ATOM     11  C   LYS A   4      16.281  16.420  19.515  0.00  0.00    +0.227 C 
ATOM     12  O   LYS A   4      16.932  16.254  20.546  0.00  0.00    -0.286 OA
ENDBRANCH  10  11
BRANCH  10  13
ATOM     13  CB  LYS A   4      15.790  18.715  18.566  0.00  0.00    +0.028 C 
BRANCH  13  14
ATOM     14  CG  LYS A   4      16.449  20.068  18.250  0.00  0.00    -0.000 C 
BRANCH  14  15
ATOM     15  CD  LYS A   4      17.836  20.190  18.854  0.00  0.00    -0.024 C 
BRANCH  15  16
ATOM     16  CE  LYS A   4      18.127  21.630  19.266  0.00  0.00    -0.086 C 
BRANCH  16  17
ATOM     17  NZ  LYS A   4      19.557  21.850  19.669  0.00  0.00    +0.380 N 
ATOM     18  HZ1 LYS A   4      19.786  21.238  20.478  0.00  0.00    -0.089 HD
ATOM     19  HZ2 LYS A   4      19.691  22.846  19.937  0.00  0.00    -0.089 HD
ATOM     20  HZ3 LYS A   4      20.181  21.618  18.870  0.00  0.00    -0.089 HD
ENDBRANCH  16  17
ENDBRANCH  15  16
ENDBRANCH  14  15
ENDBRANCH  13  14
ENDBRANCH  10  13
ENDBRANCH   8  10
ENDBRANCH   5   6
ENDBRANCH   3   5
BRANCH   1  21
ATOM     21  CA  PHE A   2      13.634  14.293  15.363  0.00  0.00    +0.153 C 
BRANCH  21  24
ATOM     22  C   ASP A   1      12.945  16.591  15.791  0.00  0.00    +0.239 C 
ATOM     23  O   ASP A   1      13.352  16.570  16.952  0.00  0.00    -0.274 OA
ATOM     24  N   PHE A   2      13.067  15.568  14.954  0.00  0.00    -0.297 N 
ATOM     25  H   PHE A   2      12.746  15.682  13.971  0.00  0.00    +0.150 HD
BRANCH  22  26
ATOM     26  CA  ASP A   1      12.254  17.825  15.229  0.00  0.00    +0.156 C 
BRANCH  26  27
ATOM     27  N   ASP A   1      11.976  18.776  16.300  0.00  0.00    -0.238 NA
ATOM     28  H   ASP A   1      12.607  18.820  17.125  0.00  0.00    +0.142 HD
ENDBRANCH  26  27
BRANCH  26  29
ATOM     29  CB  ASP A   1      13.093  18.464  14.104  0.00  0.00    +0.140 C 
BRANCH  29  30
ATOM     30  CG  ASP A   1      14.474  18.917  14.561  0.00  0.00    +0.367 C 
ATOM     31  OD2 ASP A   1      15.242  18.102  15.111  0.00  0.00    -0.246 OA
ATOM     32  OD1 ASP A   1      14.821  20.091  14.338  0.00  0.00    -0.246 OA
ENDBRANCH  29  30
ENDBRANCH  26  29
ENDBRANCH  22  26
ENDBRANCH  21  24
BRANCH  21  33
ATOM     33  CB  PHE A   2      13.469  13.285  14.226  0.00  0.00    +0.055 C 
BRANCH  33  34
ATOM     34  CG  PHE A   2      14.059  11.941  14.513  0.00  0.00    -0.020 A 
ATOM     35  CD2 PHE A   2      13.312  10.973  15.145  0.00  0.00    -0.004 A 
ATOM     36  CE2 PHE A   2      13.845   9.725  15.397  0.00  0.00    -0.000 A 
ATOM     37  CZ  PHE A   2      15.131   9.437  15.023  0.00  0.00    -0.000 A 
ATOM     38  CE1 PHE A   2      15.893  10.395  14.391  0.00  0.00    -0.000 A 
ATOM     39  CD1 PHE A   2      15.356  11.641  14.135  0.00  0.00    -0.004 A 
ENDBRANCH  33  34
ENDBRANCH  21  33
ENDBRANCH   1  21
TORSDOF 17
REMARK  Name = ../refined-set-2016/4rfc/4rfc_pocket.pdb
REMARK  167 active torsions:
REMARK  status: ('A' for Active; 'I' for Inactive)
REMARK    1  A    between atoms: _1  and  _3
REMARK    2  A    between atoms: _3  and  _4
REMARK    3  A    between atoms: _3  and  _6
REMARK    4  A    between atoms: _6  and  _7
REMARK    5  A    between atoms: _17  and  _19
REMARK    6  A    between atoms: _19  and  _20
REMARK    7  A    between atoms: _19  and  _22
REMARK    8  A    between atoms: _22  and  _23
REMARK    9  A    between atoms: _28  and  _29
REMARK   10  A    between atoms: _31  and  _33
REMARK   11  A    between atoms: _33  and  _34
REMARK   12  A    between atoms: _33  and  _36
REMARK   13  A    between atoms: _36  and  _37
REMARK   14  A    between atoms: _43  and  _45
REMARK   15  A    between atoms: _45  and  _46
REMARK   16  A    between atoms: _45  and  _48
REMARK   17  A    between atoms: _48  and  _49
REMARK   18  A    between atoms: _52  and  _53
REMARK   19  A    between atoms: _58  and  _60
REMARK   20  A    between atoms: _60  and  _61
REMARK   21  A    between atoms: _60  and  _63
REMARK   22  A    between atoms: _63  and  _64
REMARK   23  A    between atoms: _69  and  _71
REMARK   24  A    between atoms: _71  and  _72
REMARK   25  A    between atoms: _75  and  _77
REMARK   26  A    between atoms: _77  and  _78
REMARK   27  A    between atoms: _77  and  _80
REMARK   28  A    between atoms: _80  and  _81
REMARK   29  A    between atoms: _86  and  _88
REMARK   30  A    between atoms: _88  and  _89
REMARK   31  A    between atoms: _88  and  _91
REMARK   32  A    between atoms: _91  and  _92
REMARK   33  A    between atoms: _95  and  _97
REMARK   34  A    between atoms: _97  and  _98
REMARK   35  A    between atoms: _97  and  _100
REMARK   36  A    between atoms: _100  and  _101
REMARK   37  A    between atoms: _101  and  _102
REMARK   38  A    between atoms: _107  and  _109
REMARK   39  A    between atoms: _109  and  _110
REMARK   40  A    between atoms: _109  and  _112
REMARK   41  A    between atoms: _112  and  _113
REMARK   42  A    between atoms: _119  and  _121
REMARK   43  A    between atoms: _132  and  _135
REMARK   44  A    between atoms: _135  and  _136
REMARK   45  A    between atoms: _144  and  _145
REMARK   46  A    between atoms: _153  and  _155
REMARK   47  A    between atoms: _155  and  _156
REMARK   48  A    between atoms: _155  and  _158
REMARK   49  A    between atoms: _158  and  _159
REMARK   50  A    between atoms: _159  and  _160
REMARK   51  A    between atoms: _163  and  _165
REMARK   52  A    between atoms: _165  and  _166
REMARK   53  A    between atoms: _165  and  _168
REMARK   54  A    between atoms: _168  and  _169
REMARK   55  A    between atoms: _174  and  _176
REMARK   56  A    between atoms: _176  and  _177
REMARK   57  A    between atoms: _176  and  _179
REMARK   58  A    between atoms: _179  and  _180
REMARK   59  A    between atoms: _180  and  _181
REMARK   60  A    between atoms: _184  and  _186
REMARK   61  A    between atoms: _186  and  _187
REMARK   62  A    between atoms: _186  and  _189
REMARK   63  A    between atoms: _189  and  _190
REMARK   64  A    between atoms: _193  and  _195
REMARK   65  A    between atoms: _195  and  _196
REMARK   66  A    between atoms: _195  and  _198
REMARK   67  A    between atoms: _198  and  _199
REMARK   68  A    between atoms: _200  and  ZN_459
REMARK   69  A    between atoms: _204  and  _206
REMARK   70  A    between atoms: _206  and  _207
REMARK   71  A    between atoms: _206  and  _209
REMARK   72  A    between atoms: _209  and  _210
REMARK   73  A    between atoms: _213  and  _215
REMARK   74  A    between atoms: _215  and  _216
REMARK   75  A    between atoms: _215  and  _218
REMARK   76  A    between atoms: _221  and  _223
REMARK   77  A    between atoms: _223  and  _224
REMARK   78  A    between atoms: _223  and  _226
REMARK   79  A    between atoms: _226  and  _227
REMARK   80  A    between atoms: _232  and  _234
REMARK   81  A    between atoms: _234  and  _235
REMARK   82  A    between atoms: _234  and  _237
REMARK   83  A    between atoms: _237  and  _238
REMARK   84  A    between atoms: _241  and  _243
REMARK   85  A    between atoms: _243  and  _244
REMARK   86  A    between atoms: _243  and  _246
REMARK   87  A    between atoms: _246  and  _247
REMARK   88  A    between atoms: _253  and  _255
REMARK   89  A    between atoms: _255  and  _256
REMARK   90  A    between atoms: _258  and  _260
REMARK   91  A    between atoms: _260  and  _261
REMARK   92  A    between atoms: _260  and  _263
REMARK   93  A    between atoms: _263  and  _264
REMARK   94  A    between atoms: _264  and  _265
REMARK   95  A    between atoms: _265  and  _266
REMARK   96  A    between atoms: _266  and  _267
REMARK   97  A    between atoms: _271  and  _273
REMARK   98  A    between atoms: _273  and  _274
REMARK   99  A    between atoms: _273  and  _276
REMARK  100  A    between atoms: _279  and  _281
REMARK  101  A    between atoms: _281  and  _282
REMARK  102  A    between atoms: _281  and  _284
REMARK  103  A    between atoms: _284  and  _285
REMARK  104  A    between atoms: _285  and  _286
REMARK  105  A    between atoms: _291  and  _293
REMARK  106  A    between atoms: _293  and  _294
REMARK  107  A    between atoms: _293  and  _296
REMARK  108  A    between atoms: _296  and  _297
REMARK  109  A    between atoms: _300  and  _302
REMARK  110  A    between atoms: _302  and  _303
REMARK  111  A    between atoms: _306  and  _308
REMARK  112  A    between atoms: _308  and  _309
REMARK  113  A    between atoms: _308  and  _311
REMARK  114  A    between atoms: _314  and  _316
REMARK  115  A    between atoms: _316  and  _317
REMARK  116  A    between atoms: _316  and  _319
REMARK  117  A    between atoms: _319  and  _320
REMARK  118  A    between atoms: _323  and  _325
REMARK  119  A    between atoms: _325  and  _326
REMARK  120  A    between atoms: _328  and  _330
REMARK  121  A    between atoms: _330  and  _331
REMARK  122  A    between atoms: _333  and  _335
REMARK  123  A    between atoms: _335  and  _336
REMARK  124  A    between atoms: _335  and  _338
REMARK  125  A    between atoms: _338  and  _339
REMARK  126  A    between atoms: _341  and  _343
REMARK  127  A    between atoms: _343  and  _344
REMARK  128  A    between atoms: _343  and  _346
REMARK  129  A    between atoms: _346  and  _347
REMARK  130  A    between atoms: _350  and  _352
REMARK  131  A    between atoms: _352  and  _353
REMARK  132  A    between atoms: _352  and  _355
REMARK  133  A    between atoms: _355  and  _356
REMARK  134  A    between atoms: _359  and  _361
REMARK  135  A    between atoms: _361  and  _362
REMARK  136  A    between atoms: _361  and  _364
REMARK  137  A    between atoms: _364  and  _365
REMARK  138  A    between atoms: _369  and  _370
REMARK  139  A    between atoms: _376  and  _377
REMARK  140  A    between atoms: _382  and  _384
REMARK  141  A    between atoms: _384  and  _385
REMARK  142  A    between atoms: _384  and  _387
REMARK  143  A    between atoms: _387  and  _388
REMARK  144  A    between atoms: _391  and  _393
REMARK  145  A    between atoms: _393  and  _394
REMARK  146  A    between atoms: _393  and  _396
REMARK  147  A    between atoms: _396  and  _397
REMARK  148  A    between atoms: _400  and  _402
REMARK  149  A    between atoms: _402  and  _403
REMARK  150  A    between atoms: _402  and  _405
REMARK  151  A    between atoms: _407  and  _409
REMARK  152  A    between atoms: _409  and  _410
REMARK  153  A    between atoms: _409  and  _412
REMARK  154  A    between atoms: _415  and  _417
REMARK  155  A    between atoms: _417  and  _418
REMARK  156  A    between atoms: _417  and  _420
REMARK  157  A    between atoms: _420  and  _421
REMARK  158  A    between atoms: _431  and  _433
REMARK  159  A    between atoms: _433  and  _434
REMARK  160  A    between atoms: _433  and  _436
REMARK  161  A    between atoms: _436  and  _437
REMARK  162  A    between atoms: _442  and  _444
REMARK  163  A    between atoms: _444  and  _445
REMARK  164  A    between atoms: _444  and  _447
REMARK  165  A    between atoms: _447  and  _448
REMARK  166  A    between atoms: _448  and  _449
REMARK  167  A    between atoms: _449  and  _450
REMARK                            x       y       z     vdW  Elec       q    Type
REMARK                         _______ _______ _______ _____ _____    ______ ____
ROOT
ATOM      1  C   VAL A   1      18.376  12.394  20.943  0.00  0.00    +0.238 C 
ATOM      2  O   VAL A   1      19.059  11.522  21.494  0.00  0.00    -0.274 OA
ATOM      3  N   GLN A   2      18.519  13.693  21.202  0.00  0.00    -0.298 N 
ATOM      4  H   GLN A   2      17.892  14.377  20.733  0.00  0.00    +0.150 HD
ENDROOT
BRANCH   1   5
ATOM      5  CA  VAL A   1      17.286  12.013  19.940  0.00  0.00    +0.145 C 
BRANCH   5   6
ATOM      6  CB  VAL A   1      17.952  11.401  18.682  0.00  0.00    +0.025 C 
ATOM      7  CG2 VAL A   1      18.699  12.469  17.858  0.00  0.00    +0.002 C 
ATOM      8  CG1 VAL A   1      16.921  10.673  17.851  0.00  0.00    +0.002 C 
ENDBRANCH   5   6
BRANCH   5   9
ATOM      9  N   VAL A   1      16.410  13.148  19.612  0.00  0.00    -0.238 NA
ATOM     10  H   VAL A   1      16.429  13.572  18.663  0.00  0.00    +0.142 HD
ENDBRANCH   5   9
ENDBRANCH   1   5
BRANCH   3  11
ATOM     11  CA  GLN A   2      19.532  14.175  22.126  0.00  0.00    +0.137 C 
BRANCH  11  12
ATOM     12  C   GLN A   2      18.945  14.398  23.519  0.00  0.00    +0.227 C 
ATOM     13  O   GLN A   2      19.603  14.931  24.400  0.00  0.00    -0.286 OA
ENDBRANCH  11  12
BRANCH  11  14
ATOM     14  CB  GLN A   2      20.160  15.467  21.587  0.00  0.00    +0.037 C 
BRANCH  14  15
ATOM     15  CG  GLN A   2      20.579  15.381  20.129  0.00  0.00    +0.087 C 
BRANCH  15  16
ATOM     16  CD  GLN A   2      21.022  16.718  19.568  0.00  0.00    +0.219 C 
ATOM     17  OE1 GLN A   2      21.706  17.493  20.240  0.00  0.00    -0.275 OA
ATOM     18  NE2 GLN A   2      20.633  16.997  18.331  0.00  0.00    -0.329 N 
ATOM     19 HE21 GLN A   2      20.905  17.900  17.892  0.00  0.00    +0.145 HD
ATOM     20 HE22 GLN A   2      20.056  16.313  17.801  0.00  0.00    +0.145 HD
ENDBRANCH  15  16
ENDBRANCH  14  15
ENDBRANCH  11  14
ENDBRANCH   3  11
TORSDOF 8
REMARK  Name = ../refined-set-2016/4rfc/4rfc_pocket.pdb
REMARK  167 active torsions:
REMARK  status: ('A' for Active; 'I' for Inactive)
REMARK    1  A    between atoms: _1  and  _3
REMARK    2  A    between atoms: _3  and  _4
REMARK    3  A    between atoms: _3  and  _6
REMARK    4  A    between atoms: _6  and  _7
REMARK    5  A    between atoms: _17  and  _19
REMARK    6  A    between atoms: _19  and  _20
REMARK    7  A    between atoms: _19  and  _22
REMARK    8  A    between atoms: _22  and  _23
REMARK    9  A    between atoms: _28  and  _29
REMARK   10  A    between atoms: _31  and  _33
REMARK   11  A    between atoms: _33  and  _34
REMARK   12  A    between atoms: _33  and  _36
REMARK   13  A    between atoms: _36  and  _37
REMARK   14  A    between atoms: _43  and  _45
REMARK   15  A    between atoms: _45  and  _46
REMARK   16  A    between atoms: _45  and  _48
REMARK   17  A    between atoms: _48  and  _49
REMARK   18  A    between atoms: _52  and  _53
REMARK   19  A    between atoms: _58  and  _60
REMARK   20  A    between atoms: _60  and  _61
REMARK   21  A    between atoms: _60  and  _63
REMARK   22  A    between atoms: _63  and  _64
REMARK   23  A    between atoms: _69  and  _71
REMARK   24  A    between atoms: _71  and  _72
REMARK   25  A    between atoms: _75  and  _77
REMARK   26  A    between atoms: _77  and  _78
REMARK   27  A    between atoms: _77  and  _80
REMARK   28  A    between atoms: _80  and  _81
REMARK   29  A    between atoms: _86  and  _88
REMARK   30  A    between atoms: _88  and  _89
REMARK   31  A    between atoms: _88  and  _91
REMARK   32  A    between atoms: _91  and  _92
REMARK   33  A    between atoms: _95  and  _97
REMARK   34  A    between atoms: _97  and  _98
REMARK   35  A    between atoms: _97  and  _100
REMARK   36  A    between atoms: _100  and  _101
REMARK   37  A    between atoms: _101  and  _102
REMARK   38  A    between atoms: _107  and  _109
REMARK   39  A    between atoms: _109  and  _110
REMARK   40  A    between atoms: _109  and  _112
REMARK   41  A    between atoms: _112  and  _113
REMARK   42  A    between atoms: _119  and  _121
REMARK   43  A    between atoms: _132  and  _135
REMARK   44  A    between atoms: _135  and  _136
REMARK   45  A    between atoms: _144  and  _145
REMARK   46  A    between atoms: _153  and  _155
REMARK   47  A    between atoms: _155  and  _156
REMARK   48  A    between atoms: _155  and  _158
REMARK   49  A    between atoms: _158  and  _159
REMARK   50  A    between atoms: _159  and  _160
REMARK   51  A    between atoms: _163  and  _165
REMARK   52  A    between atoms: _165  and  _166
REMARK   53  A    between atoms: _165  and  _168
REMARK   54  A    between atoms: _168  and  _169
REMARK   55  A    between atoms: _174  and  _176
REMARK   56  A    between atoms: _176  and  _177
REMARK   57  A    between atoms: _176  and  _179
REMARK   58  A    between atoms: _179  and  _180
REMARK   59  A    between atoms: _180  and  _181
REMARK   60  A    between atoms: _184  and  _186
REMARK   61  A    between atoms: _186  and  _187
REMARK   62  A    between atoms: _186  and  _189
REMARK   63  A    between atoms: _189  and  _190
REMARK   64  A    between atoms: _193  and  _195
REMARK   65  A    between atoms: _195  and  _196
REMARK   66  A    between atoms: _195  and  _198
REMARK   67  A    between atoms: _198  and  _199
REMARK   68  A    between atoms: _200  and  ZN_459
REMARK   69  A    between atoms: _204  and  _206
REMARK   70  A    between atoms: _206  and  _207
REMARK   71  A    between atoms: _206  and  _209
REMARK   72  A    between atoms: _209  and  _210
REMARK   73  A    between atoms: _213  and  _215
REMARK   74  A    between atoms: _215  and  _216
REMARK   75  A    between atoms: _215  and  _218
REMARK   76  A    between atoms: _221  and  _223
REMARK   77  A    between atoms: _223  and  _224
REMARK   78  A    between atoms: _223  and  _226
REMARK   79  A    between atoms: _226  and  _227
REMARK   80  A    between atoms: _232  and  _234
REMARK   81  A    between atoms: _234  and  _235
REMARK   82  A    between atoms: _234  and  _237
REMARK   83  A    between atoms: _237  and  _238
REMARK   84  A    between atoms: _241  and  _243
REMARK   85  A    between atoms: _243  and  _244
REMARK   86  A    between atoms: _243  and  _246
REMARK   87  A    between atoms: _246  and  _247
REMARK   88  A    between atoms: _253  and  _255
REMARK   89  A    between atoms: _255  and  _256
REMARK   90  A    between atoms: _258  and  _260
REMARK   91  A    between atoms: _260  and  _261
REMARK   92  A    between atoms: _260  and  _263
REMARK   93  A    between atoms: _263  and  _264
REMARK   94  A    between atoms: _264  and  _265
REMARK   95  A    between atoms: _265  and  _266
REMARK   96  A    between atoms: _266  and  _267
REMARK   97  A    between atoms: _271  and  _273
REMARK   98  A    between atoms: _273  and  _274
REMARK   99  A    between atoms: _273  and  _276
REMARK  100  A    between atoms: _279  and  _281
REMARK  101  A    between atoms: _281  and  _282
REMARK  102  A    between atoms: _281  and  _284
REMARK  103  A    between atoms: _284  and  _285
REMARK  104  A    between atoms: _285  and  _286
REMARK  105  A    between atoms: _291  and  _293
REMARK  106  A    between atoms: _293  and  _294
REMARK  107  A    between atoms: _293  and  _296
REMARK  108  A    between atoms: _296  and  _297
REMARK  109  A    between atoms: _300  and  _302
REMARK  110  A    between atoms: _302  and  _303
REMARK  111  A    between atoms: _306  and  _308
REMARK  112  A    between atoms: _308  and  _309
REMARK  113  A    between atoms: _308  and  _311
REMARK  114  A    between atoms: _314  and  _316
REMARK  115  A    between atoms: _316  and  _317
REMARK  116  A    between atoms: _316  and  _319
REMARK  117  A    between atoms: _319  and  _320
REMARK  118  A    between atoms: _323  and  _325
REMARK  119  A    between atoms: _325  and  _326
REMARK  120  A    between atoms: _328  and  _330
REMARK  121  A    between atoms: _330  and  _331
REMARK  122  A    between atoms: _333  and  _335
REMARK  123  A    between atoms: _335  and  _336
REMARK  124  A    between atoms: _335  and  _338
REMARK  125  A    between atoms: _338  and  _339
REMARK  126  A    between atoms: _341  and  _343
REMARK  127  A    between atoms: _343  and  _344
REMARK  128  A    between atoms: _343  and  _346
REMARK  129  A    between atoms: _346  and  _347
REMARK  130  A    between atoms: _350  and  _352
REMARK  131  A    between atoms: _352  and  _353
REMARK  132  A    between atoms: _352  and  _355
REMARK  133  A    between atoms: _355  and  _356
REMARK  134  A    between atoms: _359  and  _361
REMARK  135  A    between atoms: _361  and  _362
REMARK  136  A    between atoms: _361  and  _364
REMARK  137  A    between atoms: _364  and  _365
REMARK  138  A    between atoms: _369  and  _370
REMARK  139  A    between atoms: _376  and  _377
REMARK  140  A    between atoms: _382  and  _384
REMARK  141  A    between atoms: _384  and  _385
REMARK  142  A    between atoms: _384  and  _387
REMARK  143  A    between atoms: _387  and  _388
REMARK  144  A    between atoms: _391  and  _393
REMARK  145  A    between atoms: _393  and  _394
REMARK  146  A    between atoms: _393  and  _396
REMARK  147  A    between atoms: _396  and  _397
REMARK  148  A    between atoms: _400  and  _402
REMARK  149  A    between atoms: _402  and  _403
REMARK  150  A    between atoms: _402  and  _405
REMARK  151  A    between atoms: _407  and  _409
REMARK  152  A    between atoms: _409  and  _410
REMARK  153  A    between atoms: _409  and  _412
REMARK  154  A    between atoms: _415  and  _417
REMARK  155  A    between atoms: _417  and  _418
REMARK  156  A    between atoms: _417  and  _420
REMARK  157  A    between atoms: _420  and  _421
REMARK  158  A    between atoms: _431  and  _433
REMARK  159  A    between atoms: _433  and  _434
REMARK  160  A    between atoms: _433  and  _436
REMARK  161  A    between atoms: _436  and  _437
REMARK  162  A    between atoms: _442  and  _444
REMARK  163  A    between atoms: _444  and  _445
REMARK  164  A    between atoms: _444  and  _447
REMARK  165  A    between atoms: _447  and  _448
REMARK  166  A    between atoms: _448  and  _449
REMARK  167  A    between atoms: _449  and  _450
REMARK                            x       y       z     vdW  Elec       q    Type
REMARK                         _______ _______ _______ _____ _____    ______ ____
ROOT
ATOM      1  CA  VAL A   3       9.318   3.310  20.233  0.00  0.00    +0.149 C 
ENDROOT
BRANCH   1   3
ATOM      2  C   ALA A   2       8.902   5.540  21.015  0.00  0.00    +0.241 C 
ATOM      3  N   VAL A   3       9.413   4.340  21.252  0.00  0.00    -0.297 N 
ATOM      4  H   VAL A   3       9.878   4.138  22.160  0.00  0.00    +0.150 HD
ATOM      5  O   ALA A   2       8.422   5.846  19.935  0.00  0.00    -0.273 OA
BRANCH   2   6
ATOM      6  CA  ALA A   2       8.948   6.546  22.140  0.00  0.00    +0.149 C 
ATOM      7  CB  ALA A   2       7.552   6.936  22.565  0.00  0.00    +0.031 C 
BRANCH   6  10
ATOM      8  C   LEU A   1      10.761   8.159  22.324  0.00  0.00    +0.238 C 
ATOM      9  O   LEU A   1      11.029   7.845  23.482  0.00  0.00    -0.274 OA
ATOM     10  N   ALA A   2       9.707   7.699  21.665  0.00  0.00    -0.297 N 
ATOM     11  H   ALA A   2       9.413   8.172  20.787  0.00  0.00    +0.150 HD
BRANCH   8  12
ATOM     12  CA  LEU A   1      11.646   9.113  21.546  0.00  0.00    +0.145 C 
BRANCH  12  13
ATOM     13  N   LEU A   1      12.355  10.056  22.412  0.00  0.00    -0.238 NA
ATOM     14  H   LEU A   1      12.972   9.701  23.170  0.00  0.00    +0.142 HD
ENDBRANCH  12  13
BRANCH  12  15
ATOM     15  CB  LEU A   1      12.619   8.270  20.704  0.00  0.00    +0.026 C 
BRANCH  15  16
ATOM     16  CG  LEU A   1      13.607   8.883  19.714  0.00  0.00    +0.002 C 
ATOM     17  CD2 LEU A   1      12.985   9.989  18.896  0.00  0.00    +0.000 C 
ATOM     18  CD1 LEU A   1      14.187   7.797  18.805  0.00  0.00    +0.000 C 
ENDBRANCH  15  16
ENDBRANCH  12  15
ENDBRANCH   8  12
ENDBRANCH   6  10
ENDBRANCH   2   6
ENDBRANCH   1   3
BRANCH   1  19
ATOM     19  C   VAL A   3       8.353   2.221  20.689  0.00  0.00    +0.241 C 
ATOM     20  O   VAL A   3       8.475   1.679  21.791  0.00  0.00    -0.273 OA
ATOM     21  N   LEU A   4       7.373   1.947  19.836  0.00  0.00    -0.297 N 
ATOM     22  H   LEU A   4       7.289   2.521  18.973  0.00  0.00    +0.150 HD
BRANCH  21  23
ATOM     23  CA  LEU A   4       6.411   0.877  20.057  0.00  0.00    +0.149 C 
BRANCH  23  24
ATOM     24  C   LEU A   4       6.954  -0.387  19.399  0.00  0.00    +0.241 C 
ATOM     25  N   GLY A   5       7.207  -1.424  20.197  0.00  0.00    -0.296 N 
ATOM     26  H   GLY A   5       6.994  -1.348  21.212  0.00  0.00    +0.150 HD
ATOM     27  O   LEU A   4       7.168  -0.404  18.194  0.00  0.00    -0.273 OA
BRANCH  25  28
ATOM     28  CA  GLY A   5       7.775  -2.662  19.679  0.00  0.00    +0.163 C 
BRANCH  28  29
ATOM     29  C   GLY A   5       6.734  -3.762  19.662  0.00  0.00    +0.229 C 
ATOM     30  O   GLY A   5       5.997  -3.942  20.632  0.00  0.00    -0.286 OA
ENDBRANCH  28  29
ENDBRANCH  25  28
ENDBRANCH  23  24
BRANCH  23  31
ATOM     31  CB  LEU A   4       5.050   1.259  19.472  0.00  0.00    +0.029 C 
BRANCH  31  32
ATOM     32  CG  LEU A   4       3.876   0.316  19.674  0.00  0.00    +0.002 C 
ATOM     33  CD2 LEU A   4       3.634   0.119  21.162  0.00  0.00    +0.000 C 
ATOM     34  CD1 LEU A   4       2.634   0.870  18.988  0.00  0.00    +0.000 C 
ENDBRANCH  31  32
ENDBRANCH  23  31
ENDBRANCH  21  23
ENDBRANCH   1  19
BRANCH   1  35
ATOM     35  CB  VAL A   3      10.694   2.705  19.894  0.00  0.00    +0.027 C 
ATOM     36  CG2 VAL A   3      11.653   3.795  19.496  0.00  0.00    +0.002 C 
ATOM     37  CG1 VAL A   3      10.566   1.696  18.739  0.00  0.00    +0.002 C 
ENDBRANCH   1  35
TORSDOF 15
REMARK  Name = ../refined-set-2016/4rfc/4rfc_pocket.pdb
REMARK  167 active torsions:
REMARK  status: ('A' for Active; 'I' for Inactive)
REMARK    1  A    between atoms: _1  and  _3
REMARK    2  A    between atoms: _3  and  _4
REMARK    3  A    between atoms: _3  and  _6
REMARK    4  A    between atoms: _6  and  _7
REMARK    5  A    between atoms: _17  and  _19
REMARK    6  A    between atoms: _19  and  _20
REMARK    7  A    between atoms: _19  and  _22
REMARK    8  A    between atoms: _22  and  _23
REMARK    9  A    between atoms: _28  and  _29
REMARK   10  A    between atoms: _31  and  _33
REMARK   11  A    between atoms: _33  and  _34
REMARK   12  A    between atoms: _33  and  _36
REMARK   13  A    between atoms: _36  and  _37
REMARK   14  A    between atoms: _43  and  _45
REMARK   15  A    between atoms: _45  and  _46
REMARK   16  A    between atoms: _45  and  _48
REMARK   17  A    between atoms: _48  and  _49
REMARK   18  A    between atoms: _52  and  _53
REMARK   19  A    between atoms: _58  and  _60
REMARK   20  A    between atoms: _60  and  _61
REMARK   21  A    between atoms: _60  and  _63
REMARK   22  A    between atoms: _63  and  _64
REMARK   23  A    between atoms: _69  and  _71
REMARK   24  A    between atoms: _71  and  _72
REMARK   25  A    between atoms: _75  and  _77
REMARK   26  A    between atoms: _77  and  _78
REMARK   27  A    between atoms: _77  and  _80
REMARK   28  A    between atoms: _80  and  _81
REMARK   29  A    between atoms: _86  and  _88
REMARK   30  A    between atoms: _88  and  _89
REMARK   31  A    between atoms: _88  and  _91
REMARK   32  A    between atoms: _91  and  _92
REMARK   33  A    between atoms: _95  and  _97
REMARK   34  A    between atoms: _97  and  _98
REMARK   35  A    between atoms: _97  and  _100
REMARK   36  A    between atoms: _100  and  _101
REMARK   37  A    between atoms: _101  and  _102
REMARK   38  A    between atoms: _107  and  _109
REMARK   39  A    between atoms: _109  and  _110
REMARK   40  A    between atoms: _109  and  _112
REMARK   41  A    between atoms: _112  and  _113
REMARK   42  A    between atoms: _119  and  _121
REMARK   43  A    between atoms: _132  and  _135
REMARK   44  A    between atoms: _135  and  _136
REMARK   45  A    between atoms: _144  and  _145
REMARK   46  A    between atoms: _153  and  _155
REMARK   47  A    between atoms: _155  and  _156
REMARK   48  A    between atoms: _155  and  _158
REMARK   49  A    between atoms: _158  and  _159
REMARK   50  A    between atoms: _159  and  _160
REMARK   51  A    between atoms: _163  and  _165
REMARK   52  A    between atoms: _165  and  _166
REMARK   53  A    between atoms: _165  and  _168
REMARK   54  A    between atoms: _168  and  _169
REMARK   55  A    between atoms: _174  and  _176
REMARK   56  A    between atoms: _176  and  _177
REMARK   57  A    between atoms: _176  and  _179
REMARK   58  A    between atoms: _179  and  _180
REMARK   59  A    between atoms: _180  and  _181
REMARK   60  A    between atoms: _184  and  _186
REMARK   61  A    between atoms: _186  and  _187
REMARK   62  A    between atoms: _186  and  _189
REMARK   63  A    between atoms: _189  and  _190
REMARK   64  A    between atoms: _193  and  _195
REMARK   65  A    between atoms: _195  and  _196
REMARK   66  A    between atoms: _195  and  _198
REMARK   67  A    between atoms: _198  and  _199
REMARK   68  A    between atoms: _200  and  ZN_459
REMARK   69  A    between atoms: _204  and  _206
REMARK   70  A    between atoms: _206  and  _207
REMARK   71  A    between atoms: _206  and  _209
REMARK   72  A    between atoms: _209  and  _210
REMARK   73  A    between atoms: _213  and  _215
REMARK   74  A    between atoms: _215  and  _216
REMARK   75  A    between atoms: _215  and  _218
REMARK   76  A    between atoms: _221  and  _223
REMARK   77  A    between atoms: _223  and  _224
REMARK   78  A    between atoms: _223  and  _226
REMARK   79  A    between atoms: _226  and  _227
REMARK   80  A    between atoms: _232  and  _234
REMARK   81  A    between atoms: _234  and  _235
REMARK   82  A    between atoms: _234  and  _237
REMARK   83  A    between atoms: _237  and  _238
REMARK   84  A    between atoms: _241  and  _243
REMARK   85  A    between atoms: _243  and  _244
REMARK   86  A    between atoms: _243  and  _246
REMARK   87  A    between atoms: _246  and  _247
REMARK   88  A    between atoms: _253  and  _255
REMARK   89  A    between atoms: _255  and  _256
REMARK   90  A    between atoms: _258  and  _260
REMARK   91  A    between atoms: _260  and  _261
REMARK   92  A    between atoms: _260  and  _263
REMARK   93  A    between atoms: _263  and  _264
REMARK   94  A    between atoms: _264  and  _265
REMARK   95  A    between atoms: _265  and  _266
REMARK   96  A    between atoms: _266  and  _267
REMARK   97  A    between atoms: _271  and  _273
REMARK   98  A    between atoms: _273  and  _274
REMARK   99  A    between atoms: _273  and  _276
REMARK  100  A    between atoms: _279  and  _281
REMARK  101  A    between atoms: _281  and  _282
REMARK  102  A    between atoms: _281  and  _284
REMARK  103  A    between atoms: _284  and  _285
REMARK  104  A    between atoms: _285  and  _286
REMARK  105  A    between atoms: _291  and  _293
REMARK  106  A    between atoms: _293  and  _294
REMARK  107  A    between atoms: _293  and  _296
REMARK  108  A    between atoms: _296  and  _297
REMARK  109  A    between atoms: _300  and  _302
REMARK  110  A    between atoms: _302  and  _303
REMARK  111  A    between atoms: _306  and  _308
REMARK  112  A    between atoms: _308  and  _309
REMARK  113  A    between atoms: _308  and  _311
REMARK  114  A    between atoms: _314  and  _316
REMARK  115  A    between atoms: _316  and  _317
REMARK  116  A    between atoms: _316  and  _319
REMARK  117  A    between atoms: _319  and  _320
REMARK  118  A    between atoms: _323  and  _325
REMARK  119  A    between atoms: _325  and  _326
REMARK  120  A    between atoms: _328  and  _330
REMARK  121  A    between atoms: _330  and  _331
REMARK  122  A    between atoms: _333  and  _335
REMARK  123  A    between atoms: _335  and  _336
REMARK  124  A    between atoms: _335  and  _338
REMARK  125  A    between atoms: _338  and  _339
REMARK  126  A    between atoms: _341  and  _343
REMARK  127  A    between atoms: _343  and  _344
REMARK  128  A    between atoms: _343  and  _346
REMARK  129  A    between atoms: _346  and  _347
REMARK  130  A    between atoms: _350  and  _352
REMARK  131  A    between atoms: _352  and  _353
REMARK  132  A    between atoms: _352  and  _355
REMARK  133  A    between atoms: _355  and  _356
REMARK  134  A    between atoms: _359  and  _361
REMARK  135  A    between atoms: _361  and  _362
REMARK  136  A    between atoms: _361  and  _364
REMARK  137  A    between atoms: _364  and  _365
REMARK  138  A    between atoms: _369  and  _370
REMARK  139  A    between atoms: _376  and  _377
REMARK  140  A    between atoms: _382  and  _384
REMARK  141  A    between atoms: _384  and  _385
REMARK  142  A    between atoms: _384  and  _387
REMARK  143  A    between atoms: _387  and  _388
REMARK  144  A    between atoms: _391  and  _393
REMARK  145  A    between atoms: _393  and  _394
REMARK  146  A    between atoms: _393  and  _396
REMARK  147  A    between atoms: _396  and  _397
REMARK  148  A    between atoms: _400  and  _402
REMARK  149  A    between atoms: _402  and  _403
REMARK  150  A    between atoms: _402  and  _405
REMARK  151  A    between atoms: _407  and  _409
REMARK  152  A    between atoms: _409  and  _410
REMARK  153  A    between atoms: _409  and  _412
REMARK  154  A    between atoms: _415  and  _417
REMARK  155  A    between atoms: _417  and  _418
REMARK  156  A    between atoms: _417  and  _420
REMARK  157  A    between atoms: _420  and  _421
REMARK  158  A    between atoms: _431  and  _433
REMARK  159  A    between atoms: _433  and  _434
REMARK  160  A    between atoms: _433  and  _436
REMARK  161  A    between atoms: _436  and  _437
REMARK  162  A    between atoms: _442  and  _444
REMARK  163  A    between atoms: _444  and  _445
REMARK  164  A    between atoms: _444  and  _447
REMARK  165  A    between atoms: _447  and  _448
REMARK  166  A    between atoms: _448  and  _449
REMARK  167  A    between atoms: _449  and  _450
REMARK                            x       y       z     vdW  Elec       q    Type
REMARK                         _______ _______ _______ _____ _____    ______ ____
ROOT
ATOM      1  CA  THR A   5      21.475   0.730  16.252  0.00  0.00    +0.176 C 
ENDROOT
BRANCH   1   2
ATOM      2  C   THR A   5      22.301   1.965  16.563  0.00  0.00    +0.246 C 
ATOM      3  O   THR A   5      21.801   2.888  17.211  0.00  0.00    -0.273 OA
ATOM      4  N   PRO A   6      23.560   2.001  16.090  0.00  0.00    -0.272 N 
ATOM      5  CA  PRO A   6      24.316   3.252  16.206  0.00  0.00    +0.152 C 
ATOM      6  CB  PRO A   6      25.559   2.984  15.354  0.00  0.00    +0.031 C 
ATOM      7  CG  PRO A   6      25.780   1.491  15.527  0.00  0.00    +0.024 C 
ATOM      8  CD  PRO A   6      24.369   0.920  15.499  0.00  0.00    +0.094 C 
BRANCH   5   9
ATOM      9  C   PRO A   6      23.494   4.426  15.674  0.00  0.00    +0.244 C 
ATOM     10  N   PRO A   7      23.541   5.579  16.357  0.00  0.00    -0.272 N 
ATOM     11  CA  PRO A   7      24.477   5.938  17.433  0.00  0.00    +0.152 C 
ATOM     12  CB  PRO A   7      24.494   7.468  17.362  0.00  0.00    +0.031 C 
ATOM     13  CG  PRO A   7      23.160   7.840  16.825  0.00  0.00    +0.024 C 
ATOM     14  CD  PRO A   7      22.735   6.728  15.908  0.00  0.00    +0.094 C 
ATOM     15  O   PRO A   6      22.824   4.286  14.645  0.00  0.00    -0.273 OA
BRANCH  11  16
ATOM     16  C   PRO A   7      24.108   5.484  18.852  0.00  0.00    +0.241 C 
ATOM     17  O   PRO A   7      24.722   5.988  19.789  0.00  0.00    -0.273 OA
ATOM     18  N   LEU A   8      23.116   4.602  19.004  0.00  0.00    -0.297 N 
ATOM     19  H   LEU A   8      22.536   4.358  18.176  0.00  0.00    +0.150 HD
BRANCH  18  20
ATOM     20  CA  LEU A   8      22.809   3.961  20.291  0.00  0.00    +0.149 C 
BRANCH  20  21
ATOM     21  C   LEU A   8      22.454   4.953  21.400  0.00  0.00    +0.241 C 
ATOM     22  O   LEU A   8      22.650   4.671  22.586  0.00  0.00    -0.273 OA
ATOM     23  N   LEU A   9      21.914   6.106  21.012  0.00  0.00    -0.298 N 
ATOM     24  H   LEU A   9      21.709   6.257  20.004  0.00  0.00    +0.150 HD
BRANCH  23  25
ATOM     25  CA  LEU A   9      21.602   7.165  21.969  0.00  0.00    +0.137 C 
BRANCH  25  26
ATOM     26  C   LEU A   9      20.543   6.737  22.980  0.00  0.00    +0.227 C 
ATOM     27  O   LEU A   9      19.575   6.053  22.636  0.00  0.00    -0.286 OA
ENDBRANCH  25  26
BRANCH  25  28
ATOM     28  CB  LEU A   9      21.146   8.426  21.232  0.00  0.00    +0.028 C 
BRANCH  28  29
ATOM     29  CG  LEU A   9      22.240   9.010  20.338  0.00  0.00    +0.002 C 
ATOM     30  CD2 LEU A   9      23.433   9.464  21.192  0.00  0.00    +0.000 C 
ATOM     31  CD1 LEU A   9      21.701  10.149  19.483  0.00  0.00    +0.000 C 
ENDBRANCH  28  29
ENDBRANCH  25  28
ENDBRANCH  23  25
ENDBRANCH  20  21
BRANCH  20  32
ATOM     32  CB  LEU A   8      23.990   3.091  20.742  0.00  0.00    +0.029 C 
BRANCH  32  33
ATOM     33  CG  LEU A   8      24.322   1.939  19.789  0.00  0.00    +0.002 C 
ATOM     34  CD2 LEU A   8      25.661   1.284  20.140  0.00  0.00    +0.000 C 
ATOM     35  CD1 LEU A   8      23.196   0.909  19.794  0.00  0.00    +0.000 C 
ENDBRANCH  32  33
ENDBRANCH  20  32
ENDBRANCH  18  20
ENDBRANCH  11  16
ENDBRANCH   5   9
ENDBRANCH   1   2
BRANCH   1  38
ATOM     36  C   THR A   4      20.250  -0.480  17.967  0.00  0.00    +0.243 C 
ATOM     37  O   THR A   4      20.858  -1.528  17.741  0.00  0.00    -0.273 OA
ATOM     38  N   THR A   5      20.402   0.615  17.236  0.00  0.00    -0.295 N 
ATOM     39  H   THR A   5      19.743   1.409  17.366  0.00  0.00    +0.150 HD
BRANCH  36  40
ATOM     40  CA  THR A   4      19.246  -0.401  19.107  0.00  0.00    +0.176 C 
BRANCH  40  43
ATOM     41  C   LEU A   3      19.004   1.828  19.977  0.00  0.00    +0.241 C 
ATOM     42  O   LEU A   3      19.987   1.647  20.711  0.00  0.00    -0.273 OA
ATOM     43  N   THR A   4      18.549   0.882  19.162  0.00  0.00    -0.295 N 
ATOM     44  H   THR A   4      17.709   1.052  18.572  0.00  0.00    +0.150 HD
BRANCH  41  45
ATOM     45  CA  LEU A   3      18.293   3.178  19.970  0.00  0.00    +0.149 C 
BRANCH  45  48
ATOM     46  C   SER A   2      17.744   2.971  22.323  0.00  0.00    +0.243 C 
ATOM     47  O   SER A   2      16.960   2.034  22.140  0.00  0.00    -0.273 OA
ATOM     48  N   LEU A   3      18.266   3.685  21.333  0.00  0.00    -0.297 N 
ATOM     49  H   LEU A   3      18.663   4.625  21.536  0.00  0.00    +0.150 HD
BRANCH  46  50
ATOM     50  CA  SER A   2      18.171   3.374  23.726  0.00  0.00    +0.178 C 
BRANCH  50  53
ATOM     51  C   GLY A   1      16.987   3.339  25.840  0.00  0.00    +0.240 C 
ATOM     52  O   GLY A   1      17.083   4.568  25.994  0.00  0.00    -0.274 OA
ATOM     53  N   SER A   2      17.394   2.707  24.747  0.00  0.00    -0.295 N 
ATOM     54  H   SER A   2      17.148   1.705  24.621  0.00  0.00    +0.150 HD
BRANCH  51  55
ATOM     55  CA  GLY A   1      16.380   2.449  26.909  0.00  0.00    +0.169 C 
BRANCH  55  56
ATOM     56  N   GLY A   1      15.305   3.063  27.663  0.00  0.00    -0.236 NA
ATOM     57  H   GLY A   1      14.699   3.774  27.207  0.00  0.00    +0.142 HD
ENDBRANCH  55  56
ENDBRANCH  51  55
ENDBRANCH  50  53
BRANCH  50  58
ATOM     58  CB  SER A   2      19.659   3.043  23.914  0.00  0.00    +0.166 C 
BRANCH  58  59
ATOM     59  OG  SER A   2      19.901   1.697  23.523  0.00  0.00    -0.380 OA
ATOM     60  H   SER A   2      19.655   1.582  22.571  0.00  0.00    +0.211 HD
ENDBRANCH  58  59
ENDBRANCH  50  58
ENDBRANCH  46  50
ENDBRANCH  45  48
BRANCH  45  61
ATOM     61  CB  LEU A   3      19.036   4.155  19.048  0.00  0.00    +0.029 C 
BRANCH  61  62
ATOM     62  CG  LEU A   3      18.594   5.617  19.087  0.00  0.00    +0.002 C 
ATOM     63  CD2 LEU A   3      17.120   5.716  18.723  0.00  0.00    +0.000 C 
ATOM     64  CD1 LEU A   3      19.442   6.440  18.140  0.00  0.00    +0.000 C 
ENDBRANCH  61  62
ENDBRANCH  45  61
ENDBRANCH  41  45
ENDBRANCH  40  43
BRANCH  40  65
ATOM     65  CB  THR A   4      18.277  -1.580  18.963  0.00  0.00    +0.137 C 
ATOM     66  CG2 THR A   4      17.265  -1.589  20.102  0.00  0.00    +0.034 C 
BRANCH  65  67
ATOM     67  OG1 THR A   4      17.595  -1.490  17.708  0.00  0.00    -0.382 OA
ATOM     68  HG1 THR A   4      16.970  -2.253  17.618  0.00  0.00    +0.210 HD
ENDBRANCH  65  67
ENDBRANCH  40  65
ENDBRANCH  36  40
ENDBRANCH   1  38
BRANCH   1  69
ATOM     69  CB  THR A   5      20.942   0.856  14.816  0.00  0.00    +0.137 C 
ATOM     70  CG2 THR A   5      20.020  -0.313  14.462  0.00  0.00    +0.034 C 
BRANCH  69  71
ATOM     71  OG1 THR A   5      20.233   2.091  14.689  0.00  0.00    -0.382 OA
ATOM     72  HG1 THR A   5      20.846   2.844  14.885  0.00  0.00    +0.210 HD
ENDBRANCH  69  71
ENDBRANCH   1  69
TORSDOF 28
REMARK  Name = ../refined-set-2016/4rfc/4rfc_pocket.pdb
REMARK  167 active torsions:
REMARK  status: ('A' for Active; 'I' for Inactive)
REMARK    1  A    between atoms: _1  and  _3
REMARK    2  A    between atoms: _3  and  _4
REMARK    3  A    between atoms: _3  and  _6
REMARK    4  A    between atoms: _6  and  _7
REMARK    5  A    between atoms: _17  and  _19
REMARK    6  A    between atoms: _19  and  _20
REMARK    7  A    between atoms: _19  and  _22
REMARK    8  A    between atoms: _22  and  _23
REMARK    9  A    between atoms: _28  and  _29
REMARK   10  A    between atoms: _31  and  _33
REMARK   11  A    between atoms: _33  and  _34
REMARK   12  A    between atoms: _33  and  _36
REMARK   13  A    between atoms: _36  and  _37
REMARK   14  A    between atoms: _43  and  _45
REMARK   15  A    between atoms: _45  and  _46
REMARK   16  A    between atoms: _45  and  _48
REMARK   17  A    between atoms: _48  and  _49
REMARK   18  A    between atoms: _52  and  _53
REMARK   19  A    between atoms: _58  and  _60
REMARK   20  A    between atoms: _60  and  _61
REMARK   21  A    between atoms: _60  and  _63
REMARK   22  A    between atoms: _63  and  _64
REMARK   23  A    between atoms: _69  and  _71
REMARK   24  A    between atoms: _71  and  _72
REMARK   25  A    between atoms: _75  and  _77
REMARK   26  A    between atoms: _77  and  _78
REMARK   27  A    between atoms: _77  and  _80
REMARK   28  A    between atoms: _80  and  _81
REMARK   29  A    between atoms: _86  and  _88
REMARK   30  A    between atoms: _88  and  _89
REMARK   31  A    between atoms: _88  and  _91
REMARK   32  A    between atoms: _91  and  _92
REMARK   33  A    between atoms: _95  and  _97
REMARK   34  A    between atoms: _97  and  _98
REMARK   35  A    between atoms: _97  and  _100
REMARK   36  A    between atoms: _100  and  _101
REMARK   37  A    between atoms: _101  and  _102
REMARK   38  A    between atoms: _107  and  _109
REMARK   39  A    between atoms: _109  and  _110
REMARK   40  A    between atoms: _109  and  _112
REMARK   41  A    between atoms: _112  and  _113
REMARK   42  A    between atoms: _119  and  _121
REMARK   43  A    between atoms: _132  and  _135
REMARK   44  A    between atoms: _135  and  _136
REMARK   45  A    between atoms: _144  and  _145
REMARK   46  A    between atoms: _153  and  _155
REMARK   47  A    between atoms: _155  and  _156
REMARK   48  A    between atoms: _155  and  _158
REMARK   49  A    between atoms: _158  and  _159
REMARK   50  A    between atoms: _159  and  _160
REMARK   51  A    between atoms: _163  and  _165
REMARK   52  A    between atoms: _165  and  _166
REMARK   53  A    between atoms: _165  and  _168
REMARK   54  A    between atoms: _168  and  _169
REMARK   55  A    between atoms: _174  and  _176
REMARK   56  A    between atoms: _176  and  _177
REMARK   57  A    between atoms: _176  and  _179
REMARK   58  A    between atoms: _179  and  _180
REMARK   59  A    between atoms: _180  and  _181
REMARK   60  A    between atoms: _184  and  _186
REMARK   61  A    between atoms: _186  and  _187
REMARK   62  A    between atoms: _186  and  _189
REMARK   63  A    between atoms: _189  and  _190
REMARK   64  A    between atoms: _193  and  _195
REMARK   65  A    between atoms: _195  and  _196
REMARK   66  A    between atoms: _195  and  _198
REMARK   67  A    between atoms: _198  and  _199
REMARK   68  A    between atoms: _200  and  ZN_459
REMARK   69  A    between atoms: _204  and  _206
REMARK   70  A    between atoms: _206  and  _207
REMARK   71  A    between atoms: _206  and  _209
REMARK   72  A    between atoms: _209  and  _210
REMARK   73  A    between atoms: _213  and  _215
REMARK   74  A    between atoms: _215  and  _216
REMARK   75  A    between atoms: _215  and  _218
REMARK   76  A    between atoms: _221  and  _223
REMARK   77  A    between atoms: _223  and  _224
REMARK   78  A    between atoms: _223  and  _226
REMARK   79  A    between atoms: _226  and  _227
REMARK   80  A    between atoms: _232  and  _234
REMARK   81  A    between atoms: _234  and  _235
REMARK   82  A    between atoms: _234  and  _237
REMARK   83  A    between atoms: _237  and  _238
REMARK   84  A    between atoms: _241  and  _243
REMARK   85  A    between atoms: _243  and  _244
REMARK   86  A    between atoms: _243  and  _246
REMARK   87  A    between atoms: _246  and  _247
REMARK   88  A    between atoms: _253  and  _255
REMARK   89  A    between atoms: _255  and  _256
REMARK   90  A    between atoms: _258  and  _260
REMARK   91  A    between atoms: _260  and  _261
REMARK   92  A    between atoms: _260  and  _263
REMARK   93  A    between atoms: _263  and  _264
REMARK   94  A    between atoms: _264  and  _265
REMARK   95  A    between atoms: _265  and  _266
REMARK   96  A    between atoms: _266  and  _267
REMARK   97  A    between atoms: _271  and  _273
REMARK   98  A    between atoms: _273  and  _274
REMARK   99  A    between atoms: _273  and  _276
REMARK  100  A    between atoms: _279  and  _281
REMARK  101  A    between atoms: _281  and  _282
REMARK  102  A    between atoms: _281  and  _284
REMARK  103  A    between atoms: _284  and  _285
REMARK  104  A    between atoms: _285  and  _286
REMARK  105  A    between atoms: _291  and  _293
REMARK  106  A    between atoms: _293  and  _294
REMARK  107  A    between atoms: _293  and  _296
REMARK  108  A    between atoms: _296  and  _297
REMARK  109  A    between atoms: _300  and  _302
REMARK  110  A    between atoms: _302  and  _303
REMARK  111  A    between atoms: _306  and  _308
REMARK  112  A    between atoms: _308  and  _309
REMARK  113  A    between atoms: _308  and  _311
REMARK  114  A    between atoms: _314  and  _316
REMARK  115  A    between atoms: _316  and  _317
REMARK  116  A    between atoms: _316  and  _319
REMARK  117  A    between atoms: _319  and  _320
REMARK  118  A    between atoms: _323  and  _325
REMARK  119  A    between atoms: _325  and  _326
REMARK  120  A    between atoms: _328  and  _330
REMARK  121  A    between atoms: _330  and  _331
REMARK  122  A    between atoms: _333  and  _335
REMARK  123  A    between atoms: _335  and  _336
REMARK  124  A    between atoms: _335  and  _338
REMARK  125  A    between atoms: _338  and  _339
REMARK  126  A    between atoms: _341  and  _343
REMARK  127  A    between atoms: _343  and  _344
REMARK  128  A    between atoms: _343  and  _346
REMARK  129  A    between atoms: _346  and  _347
REMARK  130  A    between atoms: _350  and  _352
REMARK  131  A    between atoms: _352  and  _353
REMARK  132  A    between atoms: _352  and  _355
REMARK  133  A    between atoms: _355  and  _356
REMARK  134  A    between atoms: _359  and  _361
REMARK  135  A    between atoms: _361  and  _362
REMARK  136  A    between atoms: _361  and  _364
REMARK  137  A    between atoms: _364  and  _365
REMARK  138  A    between atoms: _369  and  _370
REMARK  139  A    between atoms: _376  and  _377
REMARK  140  A    between atoms: _382  and  _384
REMARK  141  A    between atoms: _384  and  _385
REMARK  142  A    between atoms: _384  and  _387
REMARK  143  A    between atoms: _387  and  _388
REMARK  144  A    between atoms: _391  and  _393
REMARK  145  A    between atoms: _393  and  _394
REMARK  146  A    between atoms: _393  and  _396
REMARK  147  A    between atoms: _396  and  _397
REMARK  148  A    between atoms: _400  and  _402
REMARK  149  A    between atoms: _402  and  _403
REMARK  150  A    between atoms: _402  and  _405
REMARK  151  A    between atoms: _407  and  _409
REMARK  152  A    between atoms: _409  and  _410
REMARK  153  A    between atoms: _409  and  _412
REMARK  154  A    between atoms: _415  and  _417
REMARK  155  A    between atoms: _417  and  _418
REMARK  156  A    between atoms: _417  and  _420
REMARK  157  A    between atoms: _420  and  _421
REMARK  158  A    between atoms: _431  and  _433
REMARK  159  A    between atoms: _433  and  _434
REMARK  160  A    between atoms: _433  and  _436
REMARK  161  A    between atoms: _436  and  _437
REMARK  162  A    between atoms: _442  and  _444
REMARK  163  A    between atoms: _444  and  _445
REMARK  164  A    between atoms: _444  and  _447
REMARK  165  A    between atoms: _447  and  _448
REMARK  166  A    between atoms: _448  and  _449
REMARK  167  A    between atoms: _449  and  _450
REMARK                            x       y       z     vdW  Elec       q    Type
REMARK                         _______ _______ _______ _____ _____    ______ ____
ROOT
ATOM      1  C   CYS A   1      15.324   8.041  24.202  0.00  0.00    +0.239 C 
ATOM      2  N   VAL A   2      15.223   6.728  24.423  0.00  0.00    -0.298 N 
ATOM      3  H   VAL A   2      16.030   6.211  24.827  0.00  0.00    +0.150 HD
ATOM      4  O   CYS A   1      14.353   8.743  23.903  0.00  0.00    -0.274 OA
ENDROOT
BRANCH   1   5
ATOM      5  CA  CYS A   1      16.713   8.666  24.343  0.00  0.00    +0.156 C 
BRANCH   5   6
ATOM      6  N   CYS A   1      17.764   7.666  24.524  0.00  0.00    -0.237 NA
ATOM      7  H   CYS A   1      17.805   6.869  23.857  0.00  0.00    +0.142 HD
ENDBRANCH   5   6
BRANCH   5   8
ATOM      8  CB  CYS A   1      17.010   9.510  23.089  0.00  0.00    +0.095 C 
ATOM      9  SG  CYS A   1      17.045   8.555  21.518  0.00  0.00    -0.080 S 
ENDBRANCH   5   8
ENDBRANCH   1   5
BRANCH   2  10
ATOM     10  CA  VAL A   2      13.990   6.010  24.103  0.00  0.00    +0.137 C 
BRANCH  10  11
ATOM     11  CB  VAL A   2      14.265   4.763  23.233  0.00  0.00    +0.026 C 
ATOM     12  CG2 VAL A   2      12.949   4.059  22.898  0.00  0.00    +0.002 C 
ATOM     13  CG1 VAL A   2      15.025   5.135  21.953  0.00  0.00    +0.002 C 
ENDBRANCH  10  11
BRANCH  10  14
ATOM     14  C   VAL A   2      13.208   5.533  25.323  0.00  0.00    +0.227 C 
ATOM     15  O   VAL A   2      13.752   4.888  26.217  0.00  0.00    -0.286 OA
ENDBRANCH  10  14
ENDBRANCH   2  10
TORSDOF 6
REMARK  Name = ../refined-set-2016/4rfc/4rfc_pocket.pdb
REMARK  167 active torsions:
REMARK  status: ('A' for Active; 'I' for Inactive)
REMARK    1  A    between atoms: _1  and  _3
REMARK    2  A    between atoms: _3  and  _4
REMARK    3  A    between atoms: _3  and  _6
REMARK    4  A    between atoms: _6  and  _7
REMARK    5  A    between atoms: _17  and  _19
REMARK    6  A    between atoms: _19  and  _20
REMARK    7  A    between atoms: _19  and  _22
REMARK    8  A    between atoms: _22  and  _23
REMARK    9  A    between atoms: _28  and  _29
REMARK   10  A    between atoms: _31  and  _33
REMARK   11  A    between atoms: _33  and  _34
REMARK   12  A    between atoms: _33  and  _36
REMARK   13  A    between atoms: _36  and  _37
REMARK   14  A    between atoms: _43  and  _45
REMARK   15  A    between atoms: _45  and  _46
REMARK   16  A    between atoms: _45  and  _48
REMARK   17  A    between atoms: _48  and  _49
REMARK   18  A    between atoms: _52  and  _53
REMARK   19  A    between atoms: _58  and  _60
REMARK   20  A    between atoms: _60  and  _61
REMARK   21  A    between atoms: _60  and  _63
REMARK   22  A    between atoms: _63  and  _64
REMARK   23  A    between atoms: _69  and  _71
REMARK   24  A    between atoms: _71  and  _72
REMARK   25  A    between atoms: _75  and  _77
REMARK   26  A    between atoms: _77  and  _78
REMARK   27  A    between atoms: _77  and  _80
REMARK   28  A    between atoms: _80  and  _81
REMARK   29  A    between atoms: _86  and  _88
REMARK   30  A    between atoms: _88  and  _89
REMARK   31  A    between atoms: _88  and  _91
REMARK   32  A    between atoms: _91  and  _92
REMARK   33  A    between atoms: _95  and  _97
REMARK   34  A    between atoms: _97  and  _98
REMARK   35  A    between atoms: _97  and  _100
REMARK   36  A    between atoms: _100  and  _101
REMARK   37  A    between atoms: _101  and  _102
REMARK   38  A    between atoms: _107  and  _109
REMARK   39  A    between atoms: _109  and  _110
REMARK   40  A    between atoms: _109  and  _112
REMARK   41  A    between atoms: _112  and  _113
REMARK   42  A    between atoms: _119  and  _121
REMARK   43  A    between atoms: _132  and  _135
REMARK   44  A    between atoms: _135  and  _136
REMARK   45  A    between atoms: _144  and  _145
REMARK   46  A    between atoms: _153  and  _155
REMARK   47  A    between atoms: _155  and  _156
REMARK   48  A    between atoms: _155  and  _158
REMARK   49  A    between atoms: _158  and  _159
REMARK   50  A    between atoms: _159  and  _160
REMARK   51  A    between atoms: _163  and  _165
REMARK   52  A    between atoms: _165  and  _166
REMARK   53  A    between atoms: _165  and  _168
REMARK   54  A    between atoms: _168  and  _169
REMARK   55  A    between atoms: _174  and  _176
REMARK   56  A    between atoms: _176  and  _177
REMARK   57  A    between atoms: _176  and  _179
REMARK   58  A    between atoms: _179  and  _180
REMARK   59  A    between atoms: _180  and  _181
REMARK   60  A    between atoms: _184  and  _186
REMARK   61  A    between atoms: _186  and  _187
REMARK   62  A    between atoms: _186  and  _189
REMARK   63  A    between atoms: _189  and  _190
REMARK   64  A    between atoms: _193  and  _195
REMARK   65  A    between atoms: _195  and  _196
REMARK   66  A    between atoms: _195  and  _198
REMARK   67  A    between atoms: _198  and  _199
REMARK   68  A    between atoms: _200  and  ZN_459
REMARK   69  A    between atoms: _204  and  _206
REMARK   70  A    between atoms: _206  and  _207
REMARK   71  A    between atoms: _206  and  _209
REMARK   72  A    between atoms: _209  and  _210
REMARK   73  A    between atoms: _213  and  _215
REMARK   74  A    between atoms: _215  and  _216
REMARK   75  A    between atoms: _215  and  _218
REMARK   76  A    between atoms: _221  and  _223
REMARK   77  A    between atoms: _223  and  _224
REMARK   78  A    between atoms: _223  and  _226
REMARK   79  A    between atoms: _226  and  _227
REMARK   80  A    between atoms: _232  and  _234
REMARK   81  A    between atoms: _234  and  _235
REMARK   82  A    between atoms: _234  and  _237
REMARK   83  A    between atoms: _237  and  _238
REMARK   84  A    between atoms: _241  and  _243
REMARK   85  A    between atoms: _243  and  _244
REMARK   86  A    between atoms: _243  and  _246
REMARK   87  A    between atoms: _246  and  _247
REMARK   88  A    between atoms: _253  and  _255
REMARK   89  A    between atoms: _255  and  _256
REMARK   90  A    between atoms: _258  and  _260
REMARK   91  A    between atoms: _260  and  _261
REMARK   92  A    between atoms: _260  and  _263
REMARK   93  A    between atoms: _263  and  _264
REMARK   94  A    between atoms: _264  and  _265
REMARK   95  A    between atoms: _265  and  _266
REMARK   96  A    between atoms: _266  and  _267
REMARK   97  A    between atoms: _271  and  _273
REMARK   98  A    between atoms: _273  and  _274
REMARK   99  A    between atoms: _273  and  _276
REMARK  100  A    between atoms: _279  and  _281
REMARK  101  A    between atoms: _281  and  _282
REMARK  102  A    between atoms: _281  and  _284
REMARK  103  A    between atoms: _284  and  _285
REMARK  104  A    between atoms: _285  and  _286
REMARK  105  A    between atoms: _291  and  _293
REMARK  106  A    between atoms: _293  and  _294
REMARK  107  A    between atoms: _293  and  _296
REMARK  108  A    between atoms: _296  and  _297
REMARK  109  A    between atoms: _300  and  _302
REMARK  110  A    between atoms: _302  and  _303
REMARK  111  A    between atoms: _306  and  _308
REMARK  112  A    between atoms: _308  and  _309
REMARK  113  A    between atoms: _308  and  _311
REMARK  114  A    between atoms: _314  and  _316
REMARK  115  A    between atoms: _316  and  _317
REMARK  116  A    between atoms: _316  and  _319
REMARK  117  A    between atoms: _319  and  _320
REMARK  118  A    between atoms: _323  and  _325
REMARK  119  A    between atoms: _325  and  _326
REMARK  120  A    between atoms: _328  and  _330
REMARK  121  A    between atoms: _330  and  _331
REMARK  122  A    between atoms: _333  and  _335
REMARK  123  A    between atoms: _335  and  _336
REMARK  124  A    between atoms: _335  and  _338
REMARK  125  A    between atoms: _338  and  _339
REMARK  126  A    between atoms: _341  and  _343
REMARK  127  A    between atoms: _343  and  _344
REMARK  128  A    between atoms: _343  and  _346
REMARK  129  A    between atoms: _346  and  _347
REMARK  130  A    between atoms: _350  and  _352
REMARK  131  A    between atoms: _352  and  _353
REMARK  132  A    between atoms: _352  and  _355
REMARK  133  A    between atoms: _355  and  _356
REMARK  134  A    between atoms: _359  and  _361
REMARK  135  A    between atoms: _361  and  _362
REMARK  136  A    between atoms: _361  and  _364
REMARK  137  A    between atoms: _364  and  _365
REMARK  138  A    between atoms: _369  and  _370
REMARK  139  A    between atoms: _376  and  _377
REMARK  140  A    between atoms: _382  and  _384
REMARK  141  A    between atoms: _384  and  _385
REMARK  142  A    between atoms: _384  and  _387
REMARK  143  A    between atoms: _387  and  _388
REMARK  144  A    between atoms: _391  and  _393
REMARK  145  A    between atoms: _393  and  _394
REMARK  146  A    between atoms: _393  and  _396
REMARK  147  A    between atoms: _396  and  _397
REMARK  148  A    between atoms: _400  and  _402
REMARK  149  A    between atoms: _402  and  _403
REMARK  150  A    between atoms: _402  and  _405
REMARK  151  A    between atoms: _407  and  _409
REMARK  152  A    between atoms: _409  and  _410
REMARK  153  A    between atoms: _409  and  _412
REMARK  154  A    between atoms: _415  and  _417
REMARK  155  A    between atoms: _417  and  _418
REMARK  156  A    between atoms: _417  and  _420
REMARK  157  A    between atoms: _420  and  _421
REMARK  158  A    between atoms: _431  and  _433
REMARK  159  A    between atoms: _433  and  _434
REMARK  160  A    between atoms: _433  and  _436
REMARK  161  A    between atoms: _436  and  _437
REMARK  162  A    between atoms: _442  and  _444
REMARK  163  A    between atoms: _444  and  _445
REMARK  164  A    between atoms: _444  and  _447
REMARK  165  A    between atoms: _447  and  _448
REMARK  166  A    between atoms: _448  and  _449
REMARK  167  A    between atoms: _449  and  _450
REMARK                            x       y       z     vdW  Elec       q    Type
REMARK                         _______ _______ _______ _____ _____    ______ ____
ROOT
ATOM      1  CG  TRP A   1      12.487   0.606  24.282  0.00  0.00    -0.002 A 
ATOM      2  CD1 TRP A   1      13.711   1.165  24.487  0.00  0.00    +0.068 A 
ATOM      3  NE1 TRP A   1      14.446   1.118  23.324  0.00  0.00    -0.352 N 
ATOM      4  HE1 TRP A   1      15.416   1.475  23.206  0.00  0.00    +0.166 HD
ATOM      5  CE2 TRP A   1      13.690   0.523  22.345  0.00  0.00    +0.056 A 
ATOM      6  CZ2 TRP A   1      13.994   0.246  21.011  0.00  0.00    +0.017 A 
ATOM      7  CH2 TRP A   1      13.030  -0.364  20.253  0.00  0.00    +0.001 A 
ATOM      8  CZ3 TRP A   1      11.786  -0.714  20.797  0.00  0.00    +0.000 A 
ATOM      9  CE3 TRP A   1      11.484  -0.436  22.122  0.00  0.00    +0.001 A 
ATOM     10  CD2 TRP A   1      12.449   0.193  22.914  0.00  0.00    +0.013 A 
ENDROOT
BRANCH   1  11
ATOM     11  CB  TRP A   1      11.380   0.472  25.260  0.00  0.00    +0.053 C 
BRANCH  11  12
ATOM     12  CA  TRP A   1      10.349   1.600  25.114  0.00  0.00    +0.137 C 
BRANCH  12  13
ATOM     13  N   TRP A   1      10.805   2.779  25.831  0.00  0.00    -0.239 NA
ATOM     14  H   TRP A   1      11.409   2.672  26.671  0.00  0.00    +0.142 HD
ENDBRANCH  12  13
BRANCH  12  15
ATOM     15  C   TRP A   1       8.991   1.118  25.590  0.00  0.00    +0.224 C 
ATOM     16  O   TRP A   1       8.754   1.004  26.785  0.00  0.00    -0.287 OA
ENDBRANCH  12  15
ENDBRANCH  11  12
ENDBRANCH   1  11
TORSDOF 4
REMARK  Name = ../refined-set-2016/4rfc/4rfc_pocket.pdb
REMARK  167 active torsions:
REMARK  status: ('A' for Active; 'I' for Inactive)
REMARK    1  A    between atoms: _1  and  _3
REMARK    2  A    between atoms: _3  and  _4
REMARK    3  A    between atoms: _3  and  _6
REMARK    4  A    between atoms: _6  and  _7
REMARK    5  A    between atoms: _17  and  _19
REMARK    6  A    between atoms: _19  and  _20
REMARK    7  A    between atoms: _19  and  _22
REMARK    8  A    between atoms: _22  and  _23
REMARK    9  A    between atoms: _28  and  _29
REMARK   10  A    between atoms: _31  and  _33
REMARK   11  A    between atoms: _33  and  _34
REMARK   12  A    between atoms: _33  and  _36
REMARK   13  A    between atoms: _36  and  _37
REMARK   14  A    between atoms: _43  and  _45
REMARK   15  A    between atoms: _45  and  _46
REMARK   16  A    between atoms: _45  and  _48
REMARK   17  A    between atoms: _48  and  _49
REMARK   18  A    between atoms: _52  and  _53
REMARK   19  A    between atoms: _58  and  _60
REMARK   20  A    between atoms: _60  and  _61
REMARK   21  A    between atoms: _60  and  _63
REMARK   22  A    between atoms: _63  and  _64
REMARK   23  A    between atoms: _69  and  _71
REMARK   24  A    between atoms: _71  and  _72
REMARK   25  A    between atoms: _75  and  _77
REMARK   26  A    between atoms: _77  and  _78
REMARK   27  A    between atoms: _77  and  _80
REMARK   28  A    between atoms: _80  and  _81
REMARK   29  A    between atoms: _86  and  _88
REMARK   30  A    between atoms: _88  and  _89
REMARK   31  A    between atoms: _88  and  _91
REMARK   32  A    between atoms: _91  and  _92
REMARK   33  A    between atoms: _95  and  _97
REMARK   34  A    between atoms: _97  and  _98
REMARK   35  A    between atoms: _97  and  _100
REMARK   36  A    between atoms: _100  and  _101
REMARK   37  A    between atoms: _101  and  _102
REMARK   38  A    between atoms: _107  and  _109
REMARK   39  A    between atoms: _109  and  _110
REMARK   40  A    between atoms: _109  and  _112
REMARK   41  A    between atoms: _112  and  _113
REMARK   42  A    between atoms: _119  and  _121
REMARK   43  A    between atoms: _132  and  _135
REMARK   44  A    between atoms: _135  and  _136
REMARK   45  A    between atoms: _144  and  _145
REMARK   46  A    between atoms: _153  and  _155
REMARK   47  A    between atoms: _155  and  _156
REMARK   48  A    between atoms: _155  and  _158
REMARK   49  A    between atoms: _158  and  _159
REMARK   50  A    between atoms: _159  and  _160
REMARK   51  A    between atoms: _163  and  _165
REMARK   52  A    between atoms: _165  and  _166
REMARK   53  A    between atoms: _165  and  _168
REMARK   54  A    between atoms: _168  and  _169
REMARK   55  A    between atoms: _174  and  _176
REMARK   56  A    between atoms: _176  and  _177
REMARK   57  A    between atoms: _176  and  _179
REMARK   58  A    between atoms: _179  and  _180
REMARK   59  A    between atoms: _180  and  _181
REMARK   60  A    between atoms: _184  and  _186
REMARK   61  A    between atoms: _186  and  _187
REMARK   62  A    between atoms: _186  and  _189
REMARK   63  A    between atoms: _189  and  _190
REMARK   64  A    between atoms: _193  and  _195
REMARK   65  A    between atoms: _195  and  _196
REMARK   66  A    between atoms: _195  and  _198
REMARK   67  A    between atoms: _198  and  _199
REMARK   68  A    between atoms: _200  and  ZN_459
REMARK   69  A    between atoms: _204  and  _206
REMARK   70  A    between atoms: _206  and  _207
REMARK   71  A    between atoms: _206  and  _209
REMARK   72  A    between atoms: _209  and  _210
REMARK   73  A    between atoms: _213  and  _215
REMARK   74  A    between atoms: _215  and  _216
REMARK   75  A    between atoms: _215  and  _218
REMARK   76  A    between atoms: _221  and  _223
REMARK   77  A    between atoms: _223  and  _224
REMARK   78  A    between atoms: _223  and  _226
REMARK   79  A    between atoms: _226  and  _227
REMARK   80  A    between atoms: _232  and  _234
REMARK   81  A    between atoms: _234  and  _235
REMARK   82  A    between atoms: _234  and  _237
REMARK   83  A    between atoms: _237  and  _238
REMARK   84  A    between atoms: _241  and  _243
REMARK   85  A    between atoms: _243  and  _244
REMARK   86  A    between atoms: _243  and  _246
REMARK   87  A    between atoms: _246  and  _247
REMARK   88  A    between atoms: _253  and  _255
REMARK   89  A    between atoms: _255  and  _256
REMARK   90  A    between atoms: _258  and  _260
REMARK   91  A    between atoms: _260  and  _261
REMARK   92  A    between atoms: _260  and  _263
REMARK   93  A    between atoms: _263  and  _264
REMARK   94  A    between atoms: _264  and  _265
REMARK   95  A    between atoms: _265  and  _266
REMARK   96  A    between atoms: _266  and  _267
REMARK   97  A    between atoms: _271  and  _273
REMARK   98  A    between atoms: _273  and  _274
REMARK   99  A    between atoms: _273  and  _276
REMARK  100  A    between atoms: _279  and  _281
REMARK  101  A    between atoms: _281  and  _282
REMARK  102  A    between atoms: _281  and  _284
REMARK  103  A    between atoms: _284  and  _285
REMARK  104  A    between atoms: _285  and  _286
REMARK  105  A    between atoms: _291  and  _293
REMARK  106  A    between atoms: _293  and  _294
REMARK  107  A    between atoms: _293  and  _296
REMARK  108  A    between atoms: _296  and  _297
REMARK  109  A    between atoms: _300  and  _302
REMARK  110  A    between atoms: _302  and  _303
REMARK  111  A    between atoms: _306  and  _308
REMARK  112  A    between atoms: _308  and  _309
REMARK  113  A    between atoms: _308  and  _311
REMARK  114  A    between atoms: _314  and  _316
REMARK  115  A    between atoms: _316  and  _317
REMARK  116  A    between atoms: _316  and  _319
REMARK  117  A    between atoms: _319  and  _320
REMARK  118  A    between atoms: _323  and  _325
REMARK  119  A    between atoms: _325  and  _326
REMARK  120  A    between atoms: _328  and  _330
REMARK  121  A    between atoms: _330  and  _331
REMARK  122  A    between atoms: _333  and  _335
REMARK  123  A    between atoms: _335  and  _336
REMARK  124  A    between atoms: _335  and  _338
REMARK  125  A    between atoms: _338  and  _339
REMARK  126  A    between atoms: _341  and  _343
REMARK  127  A    between atoms: _343  and  _344
REMARK  128  A    between atoms: _343  and  _346
REMARK  129  A    between atoms: _346  and  _347
REMARK  130  A    between atoms: _350  and  _352
REMARK  131  A    between atoms: _352  and  _353
REMARK  132  A    between atoms: _352  and  _355
REMARK  133  A    between atoms: _355  and  _356
REMARK  134  A    between atoms: _359  and  _361
REMARK  135  A    between atoms: _361  and  _362
REMARK  136  A    between atoms: _361  and  _364
REMARK  137  A    between atoms: _364  and  _365
REMARK  138  A    between atoms: _369  and  _370
REMARK  139  A    between atoms: _376  and  _377
REMARK  140  A    between atoms: _382  and  _384
REMARK  141  A    between atoms: _384  and  _385
REMARK  142  A    between atoms: _384  and  _387
REMARK  143  A    between atoms: _387  and  _388
REMARK  144  A    between atoms: _391  and  _393
REMARK  145  A    between atoms: _393  and  _394
REMARK  146  A    between atoms: _393  and  _396
REMARK  147  A    between atoms: _396  and  _397
REMARK  148  A    between atoms: _400  and  _402
REMARK  149  A    between atoms: _402  and  _403
REMARK  150  A    between atoms: _402  and  _405
REMARK  151  A    between atoms: _407  and  _409
REMARK  152  A    between atoms: _409  and  _410
REMARK  153  A    between atoms: _409  and  _412
REMARK  154  A    between atoms: _415  and  _417
REMARK  155  A    between atoms: _417  and  _418
REMARK  156  A    between atoms: _417  and  _420
REMARK  157  A    between atoms: _420  and  _421
REMARK  158  A    between atoms: _431  and  _433
REMARK  159  A    between atoms: _433  and  _434
REMARK  160  A    between atoms: _433  and  _436
REMARK  161  A    between atoms: _436  and  _437
REMARK  162  A    between atoms: _442  and  _444
REMARK  163  A    between atoms: _444  and  _445
REMARK  164  A    between atoms: _444  and  _447
REMARK  165  A    between atoms: _447  and  _448
REMARK  166  A    between atoms: _448  and  _449
REMARK  167  A    between atoms: _449  and  _450
REMARK                            x       y       z     vdW  Elec       q    Type
REMARK                         _______ _______ _______ _____ _____    ______ ____
ROOT
ATOM      1  CB  ASN A   1      19.261  -6.575  10.407  0.00  0.00    +0.110 C 
ENDROOT
BRANCH   1   2
ATOM      2  CG  ASN A   1      17.752  -6.683  10.210  0.00  0.00    +0.221 C 
ATOM      3  OD1 ASN A   1      17.112  -7.601  10.720  0.00  0.00    -0.275 OA
ATOM      4  ND2 ASN A   1      17.176  -5.731   9.461  0.00  0.00    -0.329 N 
ATOM      5 HD21 ASN A   1      16.150  -5.752   9.293  0.00  0.00    +0.145 HD
ATOM      6 HD22 ASN A   1      17.755  -4.972   9.048  0.00  0.00    +0.145 HD
ENDBRANCH   1   2
BRANCH   1   7
ATOM      7  CA  ASN A   1      19.794  -7.487  11.534  0.00  0.00    +0.142 C 
BRANCH   7   8
ATOM      8  N   ASN A   1      19.462  -8.876  11.258  0.00  0.00    -0.239 NA
ATOM      9  H   ASN A   1      18.553  -9.105  10.808  0.00  0.00    +0.142 HD
ENDBRANCH   7   8
BRANCH   7  10
ATOM     10  C   ASN A   1      19.257  -7.055  12.900  0.00  0.00    +0.225 C 
ATOM     11  O   ASN A   1      18.603  -6.016  13.035  0.00  0.00    -0.287 OA
ENDBRANCH   7  10
ENDBRANCH   1   7
TORSDOF 4
REMARK  Name = ../refined-set-2016/4rfc/4rfc_pocket.pdb
REMARK  167 active torsions:
REMARK  status: ('A' for Active; 'I' for Inactive)
REMARK    1  A    between atoms: _1  and  _3
REMARK    2  A    between atoms: _3  and  _4
REMARK    3  A    between atoms: _3  and  _6
REMARK    4  A    between atoms: _6  and  _7
REMARK    5  A    between atoms: _17  and  _19
REMARK    6  A    between atoms: _19  and  _20
REMARK    7  A    between atoms: _19  and  _22
REMARK    8  A    between atoms: _22  and  _23
REMARK    9  A    between atoms: _28  and  _29
REMARK   10  A    between atoms: _31  and  _33
REMARK   11  A    between atoms: _33  and  _34
REMARK   12  A    between atoms: _33  and  _36
REMARK   13  A    between atoms: _36  and  _37
REMARK   14  A    between atoms: _43  and  _45
REMARK   15  A    between atoms: _45  and  _46
REMARK   16  A    between atoms: _45  and  _48
REMARK   17  A    between atoms: _48  and  _49
REMARK   18  A    between atoms: _52  and  _53
REMARK   19  A    between atoms: _58  and  _60
REMARK   20  A    between atoms: _60  and  _61
REMARK   21  A    between atoms: _60  and  _63
REMARK   22  A    between atoms: _63  and  _64
REMARK   23  A    between atoms: _69  and  _71
REMARK   24  A    between atoms: _71  and  _72
REMARK   25  A    between atoms: _75  and  _77
REMARK   26  A    between atoms: _77  and  _78
REMARK   27  A    between atoms: _77  and  _80
REMARK   28  A    between atoms: _80  and  _81
REMARK   29  A    between atoms: _86  and  _88
REMARK   30  A    between atoms: _88  and  _89
REMARK   31  A    between atoms: _88  and  _91
REMARK   32  A    between atoms: _91  and  _92
REMARK   33  A    between atoms: _95  and  _97
REMARK   34  A    between atoms: _97  and  _98
REMARK   35  A    between atoms: _97  and  _100
REMARK   36  A    between atoms: _100  and  _101
REMARK   37  A    between atoms: _101  and  _102
REMARK   38  A    between atoms: _107  and  _109
REMARK   39  A    between atoms: _109  and  _110
REMARK   40  A    between atoms: _109  and  _112
REMARK   41  A    between atoms: _112  and  _113
REMARK   42  A    between atoms: _119  and  _121
REMARK   43  A    between atoms: _132  and  _135
REMARK   44  A    between atoms: _135  and  _136
REMARK   45  A    between atoms: _144  and  _145
REMARK   46  A    between atoms: _153  and  _155
REMARK   47  A    between atoms: _155  and  _156
REMARK   48  A    between atoms: _155  and  _158
REMARK   49  A    between atoms: _158  and  _159
REMARK   50  A    between atoms: _159  and  _160
REMARK   51  A    between atoms: _163  and  _165
REMARK   52  A    between atoms: _165  and  _166
REMARK   53  A    between atoms: _165  and  _168
REMARK   54  A    between atoms: _168  and  _169
REMARK   55  A    between atoms: _174  and  _176
REMARK   56  A    between atoms: _176  and  _177
REMARK   57  A    between atoms: _176  and  _179
REMARK   58  A    between atoms: _179  and  _180
REMARK   59  A    between atoms: _180  and  _181
REMARK   60  A    between atoms: _184  and  _186
REMARK   61  A    between atoms: _186  and  _187
REMARK   62  A    between atoms: _186  and  _189
REMARK   63  A    between atoms: _189  and  _190
REMARK   64  A    between atoms: _193  and  _195
REMARK   65  A    between atoms: _195  and  _196
REMARK   66  A    between atoms: _195  and  _198
REMARK   67  A    between atoms: _198  and  _199
REMARK   68  A    between atoms: _200  and  ZN_459
REMARK   69  A    between atoms: _204  and  _206
REMARK   70  A    between atoms: _206  and  _207
REMARK   71  A    between atoms: _206  and  _209
REMARK   72  A    between atoms: _209  and  _210
REMARK   73  A    between atoms: _213  and  _215
REMARK   74  A    between atoms: _215  and  _216
REMARK   75  A    between atoms: _215  and  _218
REMARK   76  A    between atoms: _221  and  _223
REMARK   77  A    between atoms: _223  and  _224
REMARK   78  A    between atoms: _223  and  _226
REMARK   79  A    between atoms: _226  and  _227
REMARK   80  A    between atoms: _232  and  _234
REMARK   81  A    between atoms: _234  and  _235
REMARK   82  A    between atoms: _234  and  _237
REMARK   83  A    between atoms: _237  and  _238
REMARK   84  A    between atoms: _241  and  _243
REMARK   85  A    between atoms: _243  and  _244
REMARK   86  A    between atoms: _243  and  _246
REMARK   87  A    between atoms: _246  and  _247
REMARK   88  A    between atoms: _253  and  _255
REMARK   89  A    between atoms: _255  and  _256
REMARK   90  A    between atoms: _258  and  _260
REMARK   91  A    between atoms: _260  and  _261
REMARK   92  A    between atoms: _260  and  _263
REMARK   93  A    between atoms: _263  and  _264
REMARK   94  A    between atoms: _264  and  _265
REMARK   95  A    between atoms: _265  and  _266
REMARK   96  A    between atoms: _266  and  _267
REMARK   97  A    between atoms: _271  and  _273
REMARK   98  A    between atoms: _273  and  _274
REMARK   99  A    between atoms: _273  and  _276
REMARK  100  A    between atoms: _279  and  _281
REMARK  101  A    between atoms: _281  and  _282
REMARK  102  A    between atoms: _281  and  _284
REMARK  103  A    between atoms: _284  and  _285
REMARK  104  A    between atoms: _285  and  _286
REMARK  105  A    between atoms: _291  and  _293
REMARK  106  A    between atoms: _293  and  _294
REMARK  107  A    between atoms: _293  and  _296
REMARK  108  A    between atoms: _296  and  _297
REMARK  109  A    between atoms: _300  and  _302
REMARK  110  A    between atoms: _302  and  _303
REMARK  111  A    between atoms: _306  and  _308
REMARK  112  A    between atoms: _308  and  _309
REMARK  113  A    between atoms: _308  and  _311
REMARK  114  A    between atoms: _314  and  _316
REMARK  115  A    between atoms: _316  and  _317
REMARK  116  A    between atoms: _316  and  _319
REMARK  117  A    between atoms: _319  and  _320
REMARK  118  A    between atoms: _323  and  _325
REMARK  119  A    between atoms: _325  and  _326
REMARK  120  A    between atoms: _328  and  _330
REMARK  121  A    between atoms: _330  and  _331
REMARK  122  A    between atoms: _333  and  _335
REMARK  123  A    between atoms: _335  and  _336
REMARK  124  A    between atoms: _335  and  _338
REMARK  125  A    between atoms: _338  and  _339
REMARK  126  A    between atoms: _341  and  _343
REMARK  127  A    between atoms: _343  and  _344
REMARK  128  A    between atoms: _343  and  _346
REMARK  129  A    between atoms: _346  and  _347
REMARK  130  A    between atoms: _350  and  _352
REMARK  131  A    between atoms: _352  and  _353
REMARK  132  A    between atoms: _352  and  _355
REMARK  133  A    between atoms: _355  and  _356
REMARK  134  A    between atoms: _359  and  _361
REMARK  135  A    between atoms: _361  and  _362
REMARK  136  A    between atoms: _361  and  _364
REMARK  137  A    between atoms: _364  and  _365
REMARK  138  A    between atoms: _369  and  _370
REMARK  139  A    between atoms: _376  and  _377
REMARK  140  A    between atoms: _382  and  _384
REMARK  141  A    between atoms: _384  and  _385
REMARK  142  A    between atoms: _384  and  _387
REMARK  143  A    between atoms: _387  and  _388
REMARK  144  A    between atoms: _391  and  _393
REMARK  145  A    between atoms: _393  and  _394
REMARK  146  A    between atoms: _393  and  _396
REMARK  147  A    between atoms: _396  and  _397
REMARK  148  A    between atoms: _400  and  _402
REMARK  149  A    between atoms: _402  and  _403
REMARK  150  A    between atoms: _402  and  _405
REMARK  151  A    between atoms: _407  and  _409
REMARK  152  A    between atoms: _409  and  _410
REMARK  153  A    between atoms: _409  and  _412
REMARK  154  A    between atoms: _415  and  _417
REMARK  155  A    between atoms: _417  and  _418
REMARK  156  A    between atoms: _417  and  _420
REMARK  157  A    between atoms: _420  and  _421
REMARK  158  A    between atoms: _431  and  _433
REMARK  159  A    between atoms: _433  and  _434
REMARK  160  A    between atoms: _433  and  _436
REMARK  161  A    between atoms: _436  and  _437
REMARK  162  A    between atoms: _442  and  _444
REMARK  163  A    between atoms: _444  and  _445
REMARK  164  A    between atoms: _444  and  _447
REMARK  165  A    between atoms: _447  and  _448
REMARK  166  A    between atoms: _448  and  _449
REMARK  167  A    between atoms: _449  and  _450
REMARK                            x       y       z     vdW  Elec       q    Type
REMARK                         _______ _______ _______ _____ _____    ______ ____
ROOT
ATOM      1  NE  ARG A   1      23.548  -3.125  21.143  0.00  0.00    +0.330 N 
ATOM      2  CZ  ARG A   1      23.722  -2.148  22.029  0.00  0.00    +0.000 C 
ATOM      3  NH2 ARG A   1      24.934  -1.925  22.515  0.00  0.00    +0.330 N 
ATOM      4 HH21 ARG A   1      25.084  -1.165  23.208  0.00  0.00    +0.000 HD
ATOM      5 HH22 ARG A   1      25.735  -2.510  22.203  0.00  0.00    +0.000 HD
ATOM      6  NH1 ARG A   1      22.699  -1.400  22.436  0.00  0.00    +0.330 N 
ATOM      7 HH11 ARG A   1      22.854  -0.640  23.129  0.00  0.00    +0.000 HD
ATOM      8 HH12 ARG A   1      21.745  -1.575  22.061  0.00  0.00    +0.000 HD
ATOM      9  HE  ARG A   1      24.385  -3.678  20.869  0.00  0.00    +0.000 HD
ENDROOT
BRANCH   1  10
ATOM     10  CD  ARG A   1      22.275  -3.482  20.525  0.00  0.00    +0.000 C 
BRANCH  10  11
ATOM     11  CG  ARG A   1      22.347  -4.890  19.874  0.00  0.00    +0.000 C 
BRANCH  11  12
ATOM     12  CB  ARG A   1      21.268  -5.094  18.812  0.00  0.00    +0.000 C 
BRANCH  12  13
ATOM     13  CA  ARG A   1      21.146  -6.542  18.314  0.00  0.00    +0.000 C 
BRANCH  13  14
ATOM     14  N   ARG A   1      20.190  -6.635  17.214  0.00  0.00    +0.000 NA
ATOM     15  H   ARG A   1      19.374  -5.991  17.208  0.00  0.00    +0.000 HD
ENDBRANCH  13  14
BRANCH  13  16
ATOM     16  C   ARG A   1      20.698  -7.433  19.453  0.00  0.00    +0.000 C 
ATOM     17  O   ARG A   1      19.519  -7.438  19.794  0.00  0.00    +0.000 OA
ENDBRANCH  13  16
ENDBRANCH  12  13
ENDBRANCH  11  12
ENDBRANCH  10  11
ENDBRANCH   1  10
TORSDOF 6
REMARK  Name = ../refined-set-2016/4rfc/4rfc_pocket.pdb
REMARK  167 active torsions:
REMARK  status: ('A' for Active; 'I' for Inactive)
REMARK    1  A    between atoms: _1  and  _3
REMARK    2  A    between atoms: _3  and  _4
REMARK    3  A    between atoms: _3  and  _6
REMARK    4  A    between atoms: _6  and  _7
REMARK    5  A    between atoms: _17  and  _19
REMARK    6  A    between atoms: _19  and  _20
REMARK    7  A    between atoms: _19  and  _22
REMARK    8  A    between atoms: _22  and  _23
REMARK    9  A    between atoms: _28  and  _29
REMARK   10  A    between atoms: _31  and  _33
REMARK   11  A    between atoms: _33  and  _34
REMARK   12  A    between atoms: _33  and  _36
REMARK   13  A    between atoms: _36  and  _37
REMARK   14  A    between atoms: _43  and  _45
REMARK   15  A    between atoms: _45  and  _46
REMARK   16  A    between atoms: _45  and  _48
REMARK   17  A    between atoms: _48  and  _49
REMARK   18  A    between atoms: _52  and  _53
REMARK   19  A    between atoms: _58  and  _60
REMARK   20  A    between atoms: _60  and  _61
REMARK   21  A    between atoms: _60  and  _63
REMARK   22  A    between atoms: _63  and  _64
REMARK   23  A    between atoms: _69  and  _71
REMARK   24  A    between atoms: _71  and  _72
REMARK   25  A    between atoms: _75  and  _77
REMARK   26  A    between atoms: _77  and  _78
REMARK   27  A    between atoms: _77  and  _80
REMARK   28  A    between atoms: _80  and  _81
REMARK   29  A    between atoms: _86  and  _88
REMARK   30  A    between atoms: _88  and  _89
REMARK   31  A    between atoms: _88  and  _91
REMARK   32  A    between atoms: _91  and  _92
REMARK   33  A    between atoms: _95  and  _97
REMARK   34  A    between atoms: _97  and  _98
REMARK   35  A    between atoms: _97  and  _100
REMARK   36  A    between atoms: _100  and  _101
REMARK   37  A    between atoms: _101  and  _102
REMARK   38  A    between atoms: _107  and  _109
REMARK   39  A    between atoms: _109  and  _110
REMARK   40  A    between atoms: _109  and  _112
REMARK   41  A    between atoms: _112  and  _113
REMARK   42  A    between atoms: _119  and  _121
REMARK   43  A    between atoms: _132  and  _135
REMARK   44  A    between atoms: _135  and  _136
REMARK   45  A    between atoms: _144  and  _145
REMARK   46  A    between atoms: _153  and  _155
REMARK   47  A    between atoms: _155  and  _156
REMARK   48  A    between atoms: _155  and  _158
REMARK   49  A    between atoms: _158  and  _159
REMARK   50  A    between atoms: _159  and  _160
REMARK   51  A    between atoms: _163  and  _165
REMARK   52  A    between atoms: _165  and  _166
REMARK   53  A    between atoms: _165  and  _168
REMARK   54  A    between atoms: _168  and  _169
REMARK   55  A    between atoms: _174  and  _176
REMARK   56  A    between atoms: _176  and  _177
REMARK   57  A    between atoms: _176  and  _179
REMARK   58  A    between atoms: _179  and  _180
REMARK   59  A    between atoms: _180  and  _181
REMARK   60  A    between atoms: _184  and  _186
REMARK   61  A    between atoms: _186  and  _187
REMARK   62  A    between atoms: _186  and  _189
REMARK   63  A    between atoms: _189  and  _190
REMARK   64  A    between atoms: _193  and  _195
REMARK   65  A    between atoms: _195  and  _196
REMARK   66  A    between atoms: _195  and  _198
REMARK   67  A    between atoms: _198  and  _199
REMARK   68  A    between atoms: _200  and  ZN_459
REMARK   69  A    between atoms: _204  and  _206
REMARK   70  A    between atoms: _206  and  _207
REMARK   71  A    between atoms: _206  and  _209
REMARK   72  A    between atoms: _209  and  _210
REMARK   73  A    between atoms: _213  and  _215
REMARK   74  A    between atoms: _215  and  _216
REMARK   75  A    between atoms: _215  and  _218
REMARK   76  A    between atoms: _221  and  _223
REMARK   77  A    between atoms: _223  and  _224
REMARK   78  A    between atoms: _223  and  _226
REMARK   79  A    between atoms: _226  and  _227
REMARK   80  A    between atoms: _232  and  _234
REMARK   81  A    between atoms: _234  and  _235
REMARK   82  A    between atoms: _234  and  _237
REMARK   83  A    between atoms: _237  and  _238
REMARK   84  A    between atoms: _241  and  _243
REMARK   85  A    between atoms: _243  and  _244
REMARK   86  A    between atoms: _243  and  _246
REMARK   87  A    between atoms: _246  and  _247
REMARK   88  A    between atoms: _253  and  _255
REMARK   89  A    between atoms: _255  and  _256
REMARK   90  A    between atoms: _258  and  _260
REMARK   91  A    between atoms: _260  and  _261
REMARK   92  A    between atoms: _260  and  _263
REMARK   93  A    between atoms: _263  and  _264
REMARK   94  A    between atoms: _264  and  _265
REMARK   95  A    between atoms: _265  and  _266
REMARK   96  A    between atoms: _266  and  _267
REMARK   97  A    between atoms: _271  and  _273
REMARK   98  A    between atoms: _273  and  _274
REMARK   99  A    between atoms: _273  and  _276
REMARK  100  A    between atoms: _279  and  _281
REMARK  101  A    between atoms: _281  and  _282
REMARK  102  A    between atoms: _281  and  _284
REMARK  103  A    between atoms: _284  and  _285
REMARK  104  A    between atoms: _285  and  _286
REMARK  105  A    between atoms: _291  and  _293
REMARK  106  A    between atoms: _293  and  _294
REMARK  107  A    between atoms: _293  and  _296
REMARK  108  A    between atoms: _296  and  _297
REMARK  109  A    between atoms: _300  and  _302
REMARK  110  A    between atoms: _302  and  _303
REMARK  111  A    between atoms: _306  and  _308
REMARK  112  A    between atoms: _308  and  _309
REMARK  113  A    between atoms: _308  and  _311
REMARK  114  A    between atoms: _314  and  _316
REMARK  115  A    between atoms: _316  and  _317
REMARK  116  A    between atoms: _316  and  _319
REMARK  117  A    between atoms: _319  and  _320
REMARK  118  A    between atoms: _323  and  _325
REMARK  119  A    between atoms: _325  and  _326
REMARK  120  A    between atoms: _328  and  _330
REMARK  121  A    between atoms: _330  and  _331
REMARK  122  A    between atoms: _333  and  _335
REMARK  123  A    between atoms: _335  and  _336
REMARK  124  A    between atoms: _335  and  _338
REMARK  125  A    between atoms: _338  and  _339
REMARK  126  A    between atoms: _341  and  _343
REMARK  127  A    between atoms: _343  and  _344
REMARK  128  A    between atoms: _343  and  _346
REMARK  129  A    between atoms: _346  and  _347
REMARK  130  A    between atoms: _350  and  _352
REMARK  131  A    between atoms: _352  and  _353
REMARK  132  A    between atoms: _352  and  _355
REMARK  133  A    between atoms: _355  and  _356
REMARK  134  A    between atoms: _359  and  _361
REMARK  135  A    between atoms: _361  and  _362
REMARK  136  A    between atoms: _361  and  _364
REMARK  137  A    between atoms: _364  and  _365
REMARK  138  A    between atoms: _369  and  _370
REMARK  139  A    between atoms: _376  and  _377
REMARK  140  A    between atoms: _382  and  _384
REMARK  141  A    between atoms: _384  and  _385
REMARK  142  A    between atoms: _384  and  _387
REMARK  143  A    between atoms: _387  and  _388
REMARK  144  A    between atoms: _391  and  _393
REMARK  145  A    between atoms: _393  and  _394
REMARK  146  A    between atoms: _393  and  _396
REMARK  147  A    between atoms: _396  and  _397
REMARK  148  A    between atoms: _400  and  _402
REMARK  149  A    between atoms: _402  and  _403
REMARK  150  A    between atoms: _402  and  _405
REMARK  151  A    between atoms: _407  and  _409
REMARK  152  A    between atoms: _409  and  _410
REMARK  153  A    between atoms: _409  and  _412
REMARK  154  A    between atoms: _415  and  _417
REMARK  155  A    between atoms: _417  and  _418
REMARK  156  A    between atoms: _417  and  _420
REMARK  157  A    between atoms: _420  and  _421
REMARK  158  A    between atoms: _431  and  _433
REMARK  159  A    between atoms: _433  and  _434
REMARK  160  A    between atoms: _433  and  _436
REMARK  161  A    between atoms: _436  and  _437
REMARK  162  A    between atoms: _442  and  _444
REMARK  163  A    between atoms: _444  and  _445
REMARK  164  A    between atoms: _444  and  _447
REMARK  165  A    between atoms: _447  and  _448
REMARK  166  A    between atoms: _448  and  _449
REMARK  167  A    between atoms: _449  and  _450
REMARK                            x       y       z     vdW  Elec       q    Type
REMARK                         _______ _______ _______ _____ _____    ______ ____
ROOT
ATOM      1  O   HOH     1      19.965  -3.515  15.807  0.00  0.00    +0.000 OA
ENDROOT
TORSDOF 0
REMARK  Name = ../refined-set-2016/4rfc/4rfc_pocket.pdb
REMARK  167 active torsions:
REMARK  status: ('A' for Active; 'I' for Inactive)
REMARK    1  A    between atoms: _1  and  _3
REMARK    2  A    between atoms: _3  and  _4
REMARK    3  A    between atoms: _3  and  _6
REMARK    4  A    between atoms: _6  and  _7
REMARK    5  A    between atoms: _17  and  _19
REMARK    6  A    between atoms: _19  and  _20
REMARK    7  A    between atoms: _19  and  _22
REMARK    8  A    between atoms: _22  and  _23
REMARK    9  A    between atoms: _28  and  _29
REMARK   10  A    between atoms: _31  and  _33
REMARK   11  A    between atoms: _33  and  _34
REMARK   12  A    between atoms: _33  and  _36
REMARK   13  A    between atoms: _36  and  _37
REMARK   14  A    between atoms: _43  and  _45
REMARK   15  A    between atoms: _45  and  _46
REMARK   16  A    between atoms: _45  and  _48
REMARK   17  A    between atoms: _48  and  _49
REMARK   18  A    between atoms: _52  and  _53
REMARK   19  A    between atoms: _58  and  _60
REMARK   20  A    between atoms: _60  and  _61
REMARK   21  A    between atoms: _60  and  _63
REMARK   22  A    between atoms: _63  and  _64
REMARK   23  A    between atoms: _69  and  _71
REMARK   24  A    between atoms: _71  and  _72
REMARK   25  A    between atoms: _75  and  _77
REMARK   26  A    between atoms: _77  and  _78
REMARK   27  A    between atoms: _77  and  _80
REMARK   28  A    between atoms: _80  and  _81
REMARK   29  A    between atoms: _86  and  _88
REMARK   30  A    between atoms: _88  and  _89
REMARK   31  A    between atoms: _88  and  _91
REMARK   32  A    between atoms: _91  and  _92
REMARK   33  A    between atoms: _95  and  _97
REMARK   34  A    between atoms: _97  and  _98
REMARK   35  A    between atoms: _97  and  _100
REMARK   36  A    between atoms: _100  and  _101
REMARK   37  A    between atoms: _101  and  _102
REMARK   38  A    between atoms: _107  and  _109
REMARK   39  A    between atoms: _109  and  _110
REMARK   40  A    between atoms: _109  and  _112
REMARK   41  A    between atoms: _112  and  _113
REMARK   42  A    between atoms: _119  and  _121
REMARK   43  A    between atoms: _132  and  _135
REMARK   44  A    between atoms: _135  and  _136
REMARK   45  A    between atoms: _144  and  _145
REMARK   46  A    between atoms: _153  and  _155
REMARK   47  A    between atoms: _155  and  _156
REMARK   48  A    between atoms: _155  and  _158
REMARK   49  A    between atoms: _158  and  _159
REMARK   50  A    between atoms: _159  and  _160
REMARK   51  A    between atoms: _163  and  _165
REMARK   52  A    between atoms: _165  and  _166
REMARK   53  A    between atoms: _165  and  _168
REMARK   54  A    between atoms: _168  and  _169
REMARK   55  A    between atoms: _174  and  _176
REMARK   56  A    between atoms: _176  and  _177
REMARK   57  A    between atoms: _176  and  _179
REMARK   58  A    between atoms: _179  and  _180
REMARK   59  A    between atoms: _180  and  _181
REMARK   60  A    between atoms: _184  and  _186
REMARK   61  A    between atoms: _186  and  _187
REMARK   62  A    between atoms: _186  and  _189
REMARK   63  A    between atoms: _189  and  _190
REMARK   64  A    between atoms: _193  and  _195
REMARK   65  A    between atoms: _195  and  _196
REMARK   66  A    between atoms: _195  and  _198
REMARK   67  A    between atoms: _198  and  _199
REMARK   68  A    between atoms: _200  and  ZN_459
REMARK   69  A    between atoms: _204  and  _206
REMARK   70  A    between atoms: _206  and  _207
REMARK   71  A    between atoms: _206  and  _209
REMARK   72  A    between atoms: _209  and  _210
REMARK   73  A    between atoms: _213  and  _215
REMARK   74  A    between atoms: _215  and  _216
REMARK   75  A    between atoms: _215  and  _218
REMARK   76  A    between atoms: _221  and  _223
REMARK   77  A    between atoms: _223  and  _224
REMARK   78  A    between atoms: _223  and  _226
REMARK   79  A    between atoms: _226  and  _227
REMARK   80  A    between atoms: _232  and  _234
REMARK   81  A    between atoms: _234  and  _235
REMARK   82  A    between atoms: _234  and  _237
REMARK   83  A    between atoms: _237  and  _238
REMARK   84  A    between atoms: _241  and  _243
REMARK   85  A    between atoms: _243  and  _244
REMARK   86  A    between atoms: _243  and  _246
REMARK   87  A    between atoms: _246  and  _247
REMARK   88  A    between atoms: _253  and  _255
REMARK   89  A    between atoms: _255  and  _256
REMARK   90  A    between atoms: _258  and  _260
REMARK   91  A    between atoms: _260  and  _261
REMARK   92  A    between atoms: _260  and  _263
REMARK   93  A    between atoms: _263  and  _264
REMARK   94  A    between atoms: _264  and  _265
REMARK   95  A    between atoms: _265  and  _266
REMARK   96  A    between atoms: _266  and  _267
REMARK   97  A    between atoms: _271  and  _273
REMARK   98  A    between atoms: _273  and  _274
REMARK   99  A    between atoms: _273  and  _276
REMARK  100  A    between atoms: _279  and  _281
REMARK  101  A    between atoms: _281  and  _282
REMARK  102  A    between atoms: _281  and  _284
REMARK  103  A    between atoms: _284  and  _285
REMARK  104  A    between atoms: _285  and  _286
REMARK  105  A    between atoms: _291  and  _293
REMARK  106  A    between atoms: _293  and  _294
REMARK  107  A    between atoms: _293  and  _296
REMARK  108  A    between atoms: _296  and  _297
REMARK  109  A    between atoms: _300  and  _302
REMARK  110  A    between atoms: _302  and  _303
REMARK  111  A    between atoms: _306  and  _308
REMARK  112  A    between atoms: _308  and  _309
REMARK  113  A    between atoms: _308  and  _311
REMARK  114  A    between atoms: _314  and  _316
REMARK  115  A    between atoms: _316  and  _317
REMARK  116  A    between atoms: _316  and  _319
REMARK  117  A    between atoms: _319  and  _320
REMARK  118  A    between atoms: _323  and  _325
REMARK  119  A    between atoms: _325  and  _326
REMARK  120  A    between atoms: _328  and  _330
REMARK  121  A    between atoms: _330  and  _331
REMARK  122  A    between atoms: _333  and  _335
REMARK  123  A    between atoms: _335  and  _336
REMARK  124  A    between atoms: _335  and  _338
REMARK  125  A    between atoms: _338  and  _339
REMARK  126  A    between atoms: _341  and  _343
REMARK  127  A    between atoms: _343  and  _344
REMARK  128  A    between atoms: _343  and  _346
REMARK  129  A    between atoms: _346  and  _347
REMARK  130  A    between atoms: _350  and  _352
REMARK  131  A    between atoms: _352  and  _353
REMARK  132  A    between atoms: _352  and  _355
REMARK  133  A    between atoms: _355  and  _356
REMARK  134  A    between atoms: _359  and  _361
REMARK  135  A    between atoms: _361  and  _362
REMARK  136  A    between atoms: _361  and  _364
REMARK  137  A    between atoms: _364  and  _365
REMARK  138  A    between atoms: _369  and  _370
REMARK  139  A    between atoms: _376  and  _377
REMARK  140  A    between atoms: _382  and  _384
REMARK  141  A    between atoms: _384  and  _385
REMARK  142  A    between atoms: _384  and  _387
REMARK  143  A    between atoms: _387  and  _388
REMARK  144  A    between atoms: _391  and  _393
REMARK  145  A    between atoms: _393  and  _394
REMARK  146  A    between atoms: _393  and  _396
REMARK  147  A    between atoms: _396  and  _397
REMARK  148  A    between atoms: _400  and  _402
REMARK  149  A    between atoms: _402  and  _403
REMARK  150  A    between atoms: _402  and  _405
REMARK  151  A    between atoms: _407  and  _409
REMARK  152  A    between atoms: _409  and  _410
REMARK  153  A    between atoms: _409  and  _412
REMARK  154  A    between atoms: _415  and  _417
REMARK  155  A    between atoms: _417  and  _418
REMARK  156  A    between atoms: _417  and  _420
REMARK  157  A    between atoms: _420  and  _421
REMARK  158  A    between atoms: _431  and  _433
REMARK  159  A    between atoms: _433  and  _434
REMARK  160  A    between atoms: _433  and  _436
REMARK  161  A    between atoms: _436  and  _437
REMARK  162  A    between atoms: _442  and  _444
REMARK  163  A    between atoms: _444  and  _445
REMARK  164  A    between atoms: _444  and  _447
REMARK  165  A    between atoms: _447  and  _448
REMARK  166  A    between atoms: _448  and  _449
REMARK  167  A    between atoms: _449  and  _450
REMARK                            x       y       z     vdW  Elec       q    Type
REMARK                         _______ _______ _______ _____ _____    ______ ____
ROOT
ATOM      1  O   HOH     1      18.835  -2.386  11.615  0.00  0.00    +0.000 OA
ENDROOT
TORSDOF 0
REMARK  Name = ../refined-set-2016/4rfc/4rfc_pocket.pdb
REMARK  167 active torsions:
REMARK  status: ('A' for Active; 'I' for Inactive)
REMARK    1  A    between atoms: _1  and  _3
REMARK    2  A    between atoms: _3  and  _4
REMARK    3  A    between atoms: _3  and  _6
REMARK    4  A    between atoms: _6  and  _7
REMARK    5  A    between atoms: _17  and  _19
REMARK    6  A    between atoms: _19  and  _20
REMARK    7  A    between atoms: _19  and  _22
REMARK    8  A    between atoms: _22  and  _23
REMARK    9  A    between atoms: _28  and  _29
REMARK   10  A    between atoms: _31  and  _33
REMARK   11  A    between atoms: _33  and  _34
REMARK   12  A    between atoms: _33  and  _36
REMARK   13  A    between atoms: _36  and  _37
REMARK   14  A    between atoms: _43  and  _45
REMARK   15  A    between atoms: _45  and  _46
REMARK   16  A    between atoms: _45  and  _48
REMARK   17  A    between atoms: _48  and  _49
REMARK   18  A    between atoms: _52  and  _53
REMARK   19  A    between atoms: _58  and  _60
REMARK   20  A    between atoms: _60  and  _61
REMARK   21  A    between atoms: _60  and  _63
REMARK   22  A    between atoms: _63  and  _64
REMARK   23  A    between atoms: _69  and  _71
REMARK   24  A    between atoms: _71  and  _72
REMARK   25  A    between atoms: _75  and  _77
REMARK   26  A    between atoms: _77  and  _78
REMARK   27  A    between atoms: _77  and  _80
REMARK   28  A    between atoms: _80  and  _81
REMARK   29  A    between atoms: _86  and  _88
REMARK   30  A    between atoms: _88  and  _89
REMARK   31  A    between atoms: _88  and  _91
REMARK   32  A    between atoms: _91  and  _92
REMARK   33  A    between atoms: _95  and  _97
REMARK   34  A    between atoms: _97  and  _98
REMARK   35  A    between atoms: _97  and  _100
REMARK   36  A    between atoms: _100  and  _101
REMARK   37  A    between atoms: _101  and  _102
REMARK   38  A    between atoms: _107  and  _109
REMARK   39  A    between atoms: _109  and  _110
REMARK   40  A    between atoms: _109  and  _112
REMARK   41  A    between atoms: _112  and  _113
REMARK   42  A    between atoms: _119  and  _121
REMARK   43  A    between atoms: _132  and  _135
REMARK   44  A    between atoms: _135  and  _136
REMARK   45  A    between atoms: _144  and  _145
REMARK   46  A    between atoms: _153  and  _155
REMARK   47  A    between atoms: _155  and  _156
REMARK   48  A    between atoms: _155  and  _158
REMARK   49  A    between atoms: _158  and  _159
REMARK   50  A    between atoms: _159  and  _160
REMARK   51  A    between atoms: _163  and  _165
REMARK   52  A    between atoms: _165  and  _166
REMARK   53  A    between atoms: _165  and  _168
REMARK   54  A    between atoms: _168  and  _169
REMARK   55  A    between atoms: _174  and  _176
REMARK   56  A    between atoms: _176  and  _177
REMARK   57  A    between atoms: _176  and  _179
REMARK   58  A    between atoms: _179  and  _180
REMARK   59  A    between atoms: _180  and  _181
REMARK   60  A    between atoms: _184  and  _186
REMARK   61  A    between atoms: _186  and  _187
REMARK   62  A    between atoms: _186  and  _189
REMARK   63  A    between atoms: _189  and  _190
REMARK   64  A    between atoms: _193  and  _195
REMARK   65  A    between atoms: _195  and  _196
REMARK   66  A    between atoms: _195  and  _198
REMARK   67  A    between atoms: _198  and  _199
REMARK   68  A    between atoms: _200  and  ZN_459
REMARK   69  A    between atoms: _204  and  _206
REMARK   70  A    between atoms: _206  and  _207
REMARK   71  A    between atoms: _206  and  _209
REMARK   72  A    between atoms: _209  and  _210
REMARK   73  A    between atoms: _213  and  _215
REMARK   74  A    between atoms: _215  and  _216
REMARK   75  A    between atoms: _215  and  _218
REMARK   76  A    between atoms: _221  and  _223
REMARK   77  A    between atoms: _223  and  _224
REMARK   78  A    between atoms: _223  and  _226
REMARK   79  A    between atoms: _226  and  _227
REMARK   80  A    between atoms: _232  and  _234
REMARK   81  A    between atoms: _234  and  _235
REMARK   82  A    between atoms: _234  and  _237
REMARK   83  A    between atoms: _237  and  _238
REMARK   84  A    between atoms: _241  and  _243
REMARK   85  A    between atoms: _243  and  _244
REMARK   86  A    between atoms: _243  and  _246
REMARK   87  A    between atoms: _246  and  _247
REMARK   88  A    between atoms: _253  and  _255
REMARK   89  A    between atoms: _255  and  _256
REMARK   90  A    between atoms: _258  and  _260
REMARK   91  A    between atoms: _260  and  _261
REMARK   92  A    between atoms: _260  and  _263
REMARK   93  A    between atoms: _263  and  _264
REMARK   94  A    between atoms: _264  and  _265
REMARK   95  A    between atoms: _265  and  _266
REMARK   96  A    between atoms: _266  and  _267
REMARK   97  A    between atoms: _271  and  _273
REMARK   98  A    between atoms: _273  and  _274
REMARK   99  A    between atoms: _273  and  _276
REMARK  100  A    between atoms: _279  and  _281
REMARK  101  A    between atoms: _281  and  _282
REMARK  102  A    between atoms: _281  and  _284
REMARK  103  A    between atoms: _284  and  _285
REMARK  104  A    between atoms: _285  and  _286
REMARK  105  A    between atoms: _291  and  _293
REMARK  106  A    between atoms: _293  and  _294
REMARK  107  A    between atoms: _293  and  _296
REMARK  108  A    between atoms: _296  and  _297
REMARK  109  A    between atoms: _300  and  _302
REMARK  110  A    between atoms: _302  and  _303
REMARK  111  A    between atoms: _306  and  _308
REMARK  112  A    between atoms: _308  and  _309
REMARK  113  A    between atoms: _308  and  _311
REMARK  114  A    between atoms: _314  and  _316
REMARK  115  A    between atoms: _316  and  _317
REMARK  116  A    between atoms: _316  and  _319
REMARK  117  A    between atoms: _319  and  _320
REMARK  118  A    between atoms: _323  and  _325
REMARK  119  A    between atoms: _325  and  _326
REMARK  120  A    between atoms: _328  and  _330
REMARK  121  A    between atoms: _330  and  _331
REMARK  122  A    between atoms: _333  and  _335
REMARK  123  A    between atoms: _335  and  _336
REMARK  124  A    between atoms: _335  and  _338
REMARK  125  A    between atoms: _338  and  _339
REMARK  126  A    between atoms: _341  and  _343
REMARK  127  A    between atoms: _343  and  _344
REMARK  128  A    between atoms: _343  and  _346
REMARK  129  A    between atoms: _346  and  _347
REMARK  130  A    between atoms: _350  and  _352
REMARK  131  A    between atoms: _352  and  _353
REMARK  132  A    between atoms: _352  and  _355
REMARK  133  A    between atoms: _355  and  _356
REMARK  134  A    between atoms: _359  and  _361
REMARK  135  A    between atoms: _361  and  _362
REMARK  136  A    between atoms: _361  and  _364
REMARK  137  A    between atoms: _364  and  _365
REMARK  138  A    between atoms: _369  and  _370
REMARK  139  A    between atoms: _376  and  _377
REMARK  140  A    between atoms: _382  and  _384
REMARK  141  A    between atoms: _384  and  _385
REMARK  142  A    between atoms: _384  and  _387
REMARK  143  A    between atoms: _387  and  _388
REMARK  144  A    between atoms: _391  and  _393
REMARK  145  A    between atoms: _393  and  _394
REMARK  146  A    between atoms: _393  and  _396
REMARK  147  A    between atoms: _396  and  _397
REMARK  148  A    between atoms: _400  and  _402
REMARK  149  A    between atoms: _402  and  _403
REMARK  150  A    between atoms: _402  and  _405
REMARK  151  A    between atoms: _407  and  _409
REMARK  152  A    between atoms: _409  and  _410
REMARK  153  A    between atoms: _409  and  _412
REMARK  154  A    between atoms: _415  and  _417
REMARK  155  A    between atoms: _417  and  _418
REMARK  156  A    between atoms: _417  and  _420
REMARK  157  A    between atoms: _420  and  _421
REMARK  158  A    between atoms: _431  and  _433
REMARK  159  A    between atoms: _433  and  _434
REMARK  160  A    between atoms: _433  and  _436
REMARK  161  A    between atoms: _436  and  _437
REMARK  162  A    between atoms: _442  and  _444
REMARK  163  A    between atoms: _444  and  _445
REMARK  164  A    between atoms: _444  and  _447
REMARK  165  A    between atoms: _447  and  _448
REMARK  166  A    between atoms: _448  and  _449
REMARK  167  A    between atoms: _449  and  _450
REMARK                            x       y       z     vdW  Elec       q    Type
REMARK                         _______ _______ _______ _____ _____    ______ ____
ROOT
ATOM      1  O   HOH     1      14.355   6.593   7.207  0.00  0.00    +0.000 OA
ENDROOT
TORSDOF 0
REMARK  Name = ../refined-set-2016/4rfc/4rfc_pocket.pdb
REMARK  167 active torsions:
REMARK  status: ('A' for Active; 'I' for Inactive)
REMARK    1  A    between atoms: _1  and  _3
REMARK    2  A    between atoms: _3  and  _4
REMARK    3  A    between atoms: _3  and  _6
REMARK    4  A    between atoms: _6  and  _7
REMARK    5  A    between atoms: _17  and  _19
REMARK    6  A    between atoms: _19  and  _20
REMARK    7  A    between atoms: _19  and  _22
REMARK    8  A    between atoms: _22  and  _23
REMARK    9  A    between atoms: _28  and  _29
REMARK   10  A    between atoms: _31  and  _33
REMARK   11  A    between atoms: _33  and  _34
REMARK   12  A    between atoms: _33  and  _36
REMARK   13  A    between atoms: _36  and  _37
REMARK   14  A    between atoms: _43  and  _45
REMARK   15  A    between atoms: _45  and  _46
REMARK   16  A    between atoms: _45  and  _48
REMARK   17  A    between atoms: _48  and  _49
REMARK   18  A    between atoms: _52  and  _53
REMARK   19  A    between atoms: _58  and  _60
REMARK   20  A    between atoms: _60  and  _61
REMARK   21  A    between atoms: _60  and  _63
REMARK   22  A    between atoms: _63  and  _64
REMARK   23  A    between atoms: _69  and  _71
REMARK   24  A    between atoms: _71  and  _72
REMARK   25  A    between atoms: _75  and  _77
REMARK   26  A    between atoms: _77  and  _78
REMARK   27  A    between atoms: _77  and  _80
REMARK   28  A    between atoms: _80  and  _81
REMARK   29  A    between atoms: _86  and  _88
REMARK   30  A    between atoms: _88  and  _89
REMARK   31  A    between atoms: _88  and  _91
REMARK   32  A    between atoms: _91  and  _92
REMARK   33  A    between atoms: _95  and  _97
REMARK   34  A    between atoms: _97  and  _98
REMARK   35  A    between atoms: _97  and  _100
REMARK   36  A    between atoms: _100  and  _101
REMARK   37  A    between atoms: _101  and  _102
REMARK   38  A    between atoms: _107  and  _109
REMARK   39  A    between atoms: _109  and  _110
REMARK   40  A    between atoms: _109  and  _112
REMARK   41  A    between atoms: _112  and  _113
REMARK   42  A    between atoms: _119  and  _121
REMARK   43  A    between atoms: _132  and  _135
REMARK   44  A    between atoms: _135  and  _136
REMARK   45  A    between atoms: _144  and  _145
REMARK   46  A    between atoms: _153  and  _155
REMARK   47  A    between atoms: _155  and  _156
REMARK   48  A    between atoms: _155  and  _158
REMARK   49  A    between atoms: _158  and  _159
REMARK   50  A    between atoms: _159  and  _160
REMARK   51  A    between atoms: _163  and  _165
REMARK   52  A    between atoms: _165  and  _166
REMARK   53  A    between atoms: _165  and  _168
REMARK   54  A    between atoms: _168  and  _169
REMARK   55  A    between atoms: _174  and  _176
REMARK   56  A    between atoms: _176  and  _177
REMARK   57  A    between atoms: _176  and  _179
REMARK   58  A    between atoms: _179  and  _180
REMARK   59  A    between atoms: _180  and  _181
REMARK   60  A    between atoms: _184  and  _186
REMARK   61  A    between atoms: _186  and  _187
REMARK   62  A    between atoms: _186  and  _189
REMARK   63  A    between atoms: _189  and  _190
REMARK   64  A    between atoms: _193  and  _195
REMARK   65  A    between atoms: _195  and  _196
REMARK   66  A    between atoms: _195  and  _198
REMARK   67  A    between atoms: _198  and  _199
REMARK   68  A    between atoms: _200  and  ZN_459
REMARK   69  A    between atoms: _204  and  _206
REMARK   70  A    between atoms: _206  and  _207
REMARK   71  A    between atoms: _206  and  _209
REMARK   72  A    between atoms: _209  and  _210
REMARK   73  A    between atoms: _213  and  _215
REMARK   74  A    between atoms: _215  and  _216
REMARK   75  A    between atoms: _215  and  _218
REMARK   76  A    between atoms: _221  and  _223
REMARK   77  A    between atoms: _223  and  _224
REMARK   78  A    between atoms: _223  and  _226
REMARK   79  A    between atoms: _226  and  _227
REMARK   80  A    between atoms: _232  and  _234
REMARK   81  A    between atoms: _234  and  _235
REMARK   82  A    between atoms: _234  and  _237
REMARK   83  A    between atoms: _237  and  _238
REMARK   84  A    between atoms: _241  and  _243
REMARK   85  A    between atoms: _243  and  _244
REMARK   86  A    between atoms: _243  and  _246
REMARK   87  A    between atoms: _246  and  _247
REMARK   88  A    between atoms: _253  and  _255
REMARK   89  A    between atoms: _255  and  _256
REMARK   90  A    between atoms: _258  and  _260
REMARK   91  A    between atoms: _260  and  _261
REMARK   92  A    between atoms: _260  and  _263
REMARK   93  A    between atoms: _263  and  _264
REMARK   94  A    between atoms: _264  and  _265
REMARK   95  A    between atoms: _265  and  _266
REMARK   96  A    between atoms: _266  and  _267
REMARK   97  A    between atoms: _271  and  _273
REMARK   98  A    between atoms: _273  and  _274
REMARK   99  A    between atoms: _273  and  _276
REMARK  100  A    between atoms: _279  and  _281
REMARK  101  A    between atoms: _281  and  _282
REMARK  102  A    between atoms: _281  and  _284
REMARK  103  A    between atoms: _284  and  _285
REMARK  104  A    between atoms: _285  and  _286
REMARK  105  A    between atoms: _291  and  _293
REMARK  106  A    between atoms: _293  and  _294
REMARK  107  A    between atoms: _293  and  _296
REMARK  108  A    between atoms: _296  and  _297
REMARK  109  A    between atoms: _300  and  _302
REMARK  110  A    between atoms: _302  and  _303
REMARK  111  A    between atoms: _306  and  _308
REMARK  112  A    between atoms: _308  and  _309
REMARK  113  A    between atoms: _308  and  _311
REMARK  114  A    between atoms: _314  and  _316
REMARK  115  A    between atoms: _316  and  _317
REMARK  116  A    between atoms: _316  and  _319
REMARK  117  A    between atoms: _319  and  _320
REMARK  118  A    between atoms: _323  and  _325
REMARK  119  A    between atoms: _325  and  _326
REMARK  120  A    between atoms: _328  and  _330
REMARK  121  A    between atoms: _330  and  _331
REMARK  122  A    between atoms: _333  and  _335
REMARK  123  A    between atoms: _335  and  _336
REMARK  124  A    between atoms: _335  and  _338
REMARK  125  A    between atoms: _338  and  _339
REMARK  126  A    between atoms: _341  and  _343
REMARK  127  A    between atoms: _343  and  _344
REMARK  128  A    between atoms: _343  and  _346
REMARK  129  A    between atoms: _346  and  _347
REMARK  130  A    between atoms: _350  and  _352
REMARK  131  A    between atoms: _352  and  _353
REMARK  132  A    between atoms: _352  and  _355
REMARK  133  A    between atoms: _355  and  _356
REMARK  134  A    between atoms: _359  and  _361
REMARK  135  A    between atoms: _361  and  _362
REMARK  136  A    between atoms: _361  and  _364
REMARK  137  A    between atoms: _364  and  _365
REMARK  138  A    between atoms: _369  and  _370
REMARK  139  A    between atoms: _376  and  _377
REMARK  140  A    between atoms: _382  and  _384
REMARK  141  A    between atoms: _384  and  _385
REMARK  142  A    between atoms: _384  and  _387
REMARK  143  A    between atoms: _387  and  _388
REMARK  144  A    between atoms: _391  and  _393
REMARK  145  A    between atoms: _393  and  _394
REMARK  146  A    between atoms: _393  and  _396
REMARK  147  A    between atoms: _396  and  _397
REMARK  148  A    between atoms: _400  and  _402
REMARK  149  A    between atoms: _402  and  _403
REMARK  150  A    between atoms: _402  and  _405
REMARK  151  A    between atoms: _407  and  _409
REMARK  152  A    between atoms: _409  and  _410
REMARK  153  A    between atoms: _409  and  _412
REMARK  154  A    between atoms: _415  and  _417
REMARK  155  A    between atoms: _417  and  _418
REMARK  156  A    between atoms: _417  and  _420
REMARK  157  A    between atoms: _420  and  _421
REMARK  158  A    between atoms: _431  and  _433
REMARK  159  A    between atoms: _433  and  _434
REMARK  160  A    between atoms: _433  and  _436
REMARK  161  A    between atoms: _436  and  _437
REMARK  162  A    between atoms: _442  and  _444
REMARK  163  A    between atoms: _444  and  _445
REMARK  164  A    between atoms: _444  and  _447
REMARK  165  A    between atoms: _447  and  _448
REMARK  166  A    between atoms: _448  and  _449
REMARK  167  A    between atoms: _449  and  _450
REMARK                            x       y       z     vdW  Elec       q    Type
REMARK                         _______ _______ _______ _____ _____    ______ ____
ROOT
ATOM      1  O   HOH     1      16.194   1.663  10.666  0.00  0.00    +0.000 OA
ENDROOT
TORSDOF 0
