REMARK  Name = ../refined-set-2016/4idn/4idn_pocket.pdb
REMARK  261 active torsions:
REMARK  status: ('A' for Active; 'I' for Inactive)
REMARK    1  A    between atoms: _1  and  _3
REMARK    2  A    between atoms: _3  and  _4
REMARK    3  A    between atoms: _3  and  _6
REMARK    4  A    between atoms: _9  and  _11
REMARK    5  A    between atoms: _11  and  _12
REMARK    6  A    between atoms: _15  and  _17
REMARK    7  A    between atoms: _17  and  _18
REMARK    8  A    between atoms: _20  and  _22
REMARK    9  A    between atoms: _22  and  _23
REMARK   10  A    between atoms: _26  and  _28
REMARK   11  A    between atoms: _28  and  _29
REMARK   12  A    between atoms: _28  and  _31
REMARK   13  A    between atoms: _31  and  _32
REMARK   14  A    between atoms: _38  and  _40
REMARK   15  A    between atoms: _40  and  _41
REMARK   16  A    between atoms: _40  and  _43
REMARK   17  A    between atoms: _43  and  _44
REMARK   18  A    between atoms: _44  and  _45
REMARK   19  A    between atoms: _45  and  _46
REMARK   20  A    between atoms: _55  and  _57
REMARK   21  A    between atoms: _57  and  _58
REMARK   22  A    between atoms: _57  and  _60
REMARK   23  A    between atoms: _60  and  _61
REMARK   24  A    between atoms: _61  and  _62
REMARK   25  A    between atoms: _62  and  _63
REMARK   26  A    between atoms: _63  and  _64
REMARK   27  A    between atoms: _68  and  _70
REMARK   28  A    between atoms: _70  and  _71
REMARK   29  A    between atoms: _73  and  _75
REMARK   30  A    between atoms: _75  and  _76
REMARK   31  A    between atoms: _75  and  _78
REMARK   32  A    between atoms: _78  and  _79
REMARK   33  A    between atoms: _79  and  _80
REMARK   34  A    between atoms: _80  and  _81
REMARK   35  A    between atoms: _81  and  _82
REMARK   36  A    between atoms: _86  and  _88
REMARK   37  A    between atoms: _88  and  _89
REMARK   38  A    between atoms: _88  and  _91
REMARK   39  A    between atoms: _91  and  _92
REMARK   40  A    between atoms: _94  and  _96
REMARK   41  A    between atoms: _96  and  _97
REMARK   42  A    between atoms: _96  and  _99
REMARK   43  A    between atoms: _99  and  _100
REMARK   44  A    between atoms: _106  and  _108
REMARK   45  A    between atoms: _108  and  _109
REMARK   46  A    between atoms: _108  and  _111
REMARK   47  A    between atoms: _111  and  _112
REMARK   48  A    between atoms: _115  and  _117
REMARK   49  A    between atoms: _117  and  _118
REMARK   50  A    between atoms: _117  and  _120
REMARK   51  A    between atoms: _120  and  _121
REMARK   52  A    between atoms: _121  and  _122
REMARK   53  A    between atoms: _124  and  _126
REMARK   54  A    between atoms: _126  and  _127
REMARK   55  A    between atoms: _126  and  _129
REMARK   56  A    between atoms: _129  and  _130
REMARK   57  A    between atoms: _133  and  _135
REMARK   58  A    between atoms: _135  and  _136
REMARK   59  A    between atoms: _135  and  _138
REMARK   60  A    between atoms: _138  and  _139
REMARK   61  A    between atoms: _145  and  _147
REMARK   62  A    between atoms: _147  and  _148
REMARK   63  A    between atoms: _147  and  _150
REMARK   64  A    between atoms: _150  and  _151
REMARK   65  A    between atoms: _154  and  _156
REMARK   66  A    between atoms: _156  and  _157
REMARK   67  A    between atoms: _156  and  _159
REMARK   68  A    between atoms: _159  and  _160
REMARK   69  A    between atoms: _166  and  _168
REMARK   70  A    between atoms: _168  and  _169
REMARK   71  A    between atoms: _168  and  _171
REMARK   72  A    between atoms: _171  and  _172
REMARK   73  A    between atoms: _174  and  _176
REMARK   74  A    between atoms: _176  and  _177
REMARK   75  A    between atoms: _176  and  _179
REMARK   76  A    between atoms: _179  and  _180
REMARK   77  A    between atoms: _190  and  _192
REMARK   78  A    between atoms: _192  and  _193
REMARK   79  A    between atoms: _192  and  _195
REMARK   80  A    between atoms: _195  and  _196
REMARK   81  A    between atoms: _196  and  _197
REMARK   82  A    between atoms: _197  and  _198
REMARK   83  A    between atoms: _207  and  _209
REMARK   84  A    between atoms: _209  and  _210
REMARK   85  A    between atoms: _212  and  _214
REMARK   86  A    between atoms: _214  and  _215
REMARK   87  A    between atoms: _217  and  _219
REMARK   88  A    between atoms: _219  and  _220
REMARK   89  A    between atoms: _219  and  _222
REMARK   90  A    between atoms: _222  and  _223
REMARK   91  A    between atoms: _225  and  _227
REMARK   92  A    between atoms: _227  and  _228
REMARK   93  A    between atoms: _227  and  _230
REMARK   94  A    between atoms: _230  and  _231
REMARK   95  A    between atoms: _231  and  _232
REMARK   96  A    between atoms: _235  and  _237
REMARK   97  A    between atoms: _237  and  _238
REMARK   98  A    between atoms: _237  and  _240
REMARK   99  A    between atoms: _240  and  _241
REMARK  100  A    between atoms: _241  and  _242
REMARK  101  A    between atoms: _242  and  _243
REMARK  102  A    between atoms: _252  and  _254
REMARK  103  A    between atoms: _254  and  _255
REMARK  104  A    between atoms: _254  and  _257
REMARK  105  A    between atoms: _257  and  _258
REMARK  106  A    between atoms: _258  and  _259
REMARK  107  A    between atoms: _262  and  _264
REMARK  108  A    between atoms: _264  and  _265
REMARK  109  A    between atoms: _264  and  _267
REMARK  110  A    between atoms: _267  and  _268
REMARK  111  A    between atoms: _271  and  _273
REMARK  112  A    between atoms: _273  and  _274
REMARK  113  A    between atoms: _273  and  _276
REMARK  114  A    between atoms: _276  and  _277
REMARK  115  A    between atoms: _280  and  _282
REMARK  116  A    between atoms: _282  and  _283
REMARK  117  A    between atoms: _282  and  _285
REMARK  118  A    between atoms: _285  and  _286
REMARK  119  A    between atoms: _286  and  _287
REMARK  120  A    between atoms: _292  and  _294
REMARK  121  A    between atoms: _294  and  _295
REMARK  122  A    between atoms: _294  and  _297
REMARK  123  A    between atoms: _297  and  _298
REMARK  124  A    between atoms: _301  and  _303
REMARK  125  A    between atoms: _303  and  _304
REMARK  126  A    between atoms: _303  and  _306
REMARK  127  A    between atoms: _306  and  _307
REMARK  128  A    between atoms: _310  and  _312
REMARK  129  A    between atoms: _312  and  _313
REMARK  130  A    between atoms: _312  and  _315
REMARK  131  A    between atoms: _315  and  _316
REMARK  132  A    between atoms: _316  and  _317
REMARK  133  A    between atoms: _322  and  _324
REMARK  134  A    between atoms: _324  and  _325
REMARK  135  A    between atoms: _327  and  _329
REMARK  136  A    between atoms: _329  and  _330
REMARK  137  A    between atoms: _329  and  _332
REMARK  138  A    between atoms: _332  and  _333
REMARK  139  A    between atoms: _336  and  _338
REMARK  140  A    between atoms: _338  and  _339
REMARK  141  A    between atoms: _338  and  _341
REMARK  142  A    between atoms: _341  and  _342
REMARK  143  A    between atoms: _345  and  _347
REMARK  144  A    between atoms: _347  and  _348
REMARK  145  A    between atoms: _347  and  _350
REMARK  146  A    between atoms: _350  and  _351
REMARK  147  A    between atoms: _356  and  _358
REMARK  148  A    between atoms: _358  and  _359
REMARK  149  A    between atoms: _358  and  _361
REMARK  150  A    between atoms: _361  and  _362
REMARK  151  A    between atoms: _365  and  _367
REMARK  152  A    between atoms: _367  and  _368
REMARK  153  A    between atoms: _367  and  _370
REMARK  154  A    between atoms: _370  and  _371
REMARK  155  A    between atoms: _373  and  _375
REMARK  156  A    between atoms: _375  and  _376
REMARK  157  A    between atoms: _375  and  _378
REMARK  158  A    between atoms: _378  and  _379
REMARK  159  A    between atoms: _379  and  _380
REMARK  160  A    between atoms: _385  and  _387
REMARK  161  A    between atoms: _387  and  _388
REMARK  162  A    between atoms: _387  and  _390
REMARK  163  A    between atoms: _390  and  _391
REMARK  164  A    between atoms: _394  and  _396
REMARK  165  A    between atoms: _396  and  _397
REMARK  166  A    between atoms: _396  and  _399
REMARK  167  A    between atoms: _402  and  _404
REMARK  168  A    between atoms: _404  and  _405
REMARK  169  A    between atoms: _404  and  _407
REMARK  170  A    between atoms: _407  and  _408
REMARK  171  A    between atoms: _408  and  _409
REMARK  172  A    between atoms: _409  and  _410
REMARK  173  A    between atoms: _419  and  _421
REMARK  174  A    between atoms: _421  and  _422
REMARK  175  A    between atoms: _421  and  _424
REMARK  176  A    between atoms: _424  and  _425
REMARK  177  A    between atoms: _428  and  _430
REMARK  178  A    between atoms: _430  and  _431
REMARK  179  A    between atoms: _430  and  _433
REMARK  180  A    between atoms: _433  and  _434
REMARK  181  A    between atoms: _444  and  _446
REMARK  182  A    between atoms: _446  and  _447
REMARK  183  A    between atoms: _446  and  _449
REMARK  184  A    between atoms: _449  and  _450
REMARK  185  A    between atoms: _454  and  _455
REMARK  186  A    between atoms: _460  and  _462
REMARK  187  A    between atoms: _462  and  _463
REMARK  188  A    between atoms: _462  and  _465
REMARK  189  A    between atoms: _465  and  _466
REMARK  190  A    between atoms: _472  and  _473
REMARK  191  A    between atoms: _478  and  _480
REMARK  192  A    between atoms: _480  and  _481
REMARK  193  A    between atoms: _483  and  _485
REMARK  194  A    between atoms: _485  and  _486
REMARK  195  A    between atoms: _485  and  _488
REMARK  196  A    between atoms: _488  and  _489
REMARK  197  A    between atoms: _492  and  _494
REMARK  198  A    between atoms: _494  and  _495
REMARK  199  A    between atoms: _494  and  _497
REMARK  200  A    between atoms: _497  and  _498
REMARK  201  A    between atoms: _498  and  _499
REMARK  202  A    between atoms: _499  and  _500
REMARK  203  A    between atoms: _500  and  _501
REMARK  204  A    between atoms: _505  and  _507
REMARK  205  A    between atoms: _507  and  _508
REMARK  206  A    between atoms: _507  and  _510
REMARK  207  A    between atoms: _513  and  _515
REMARK  208  A    between atoms: _515  and  _516
REMARK  209  A    between atoms: _519  and  _521
REMARK  210  A    between atoms: _521  and  _522
REMARK  211  A    between atoms: _521  and  _524
REMARK  212  A    between atoms: _524  and  _525
REMARK  213  A    between atoms: _528  and  _530
REMARK  214  A    between atoms: _530  and  _531
REMARK  215  A    between atoms: _530  and  _533
REMARK  216  A    between atoms: _533  and  _534
REMARK  217  A    between atoms: _540  and  _541
REMARK  218  A    between atoms: _546  and  _548
REMARK  219  A    between atoms: _548  and  _549
REMARK  220  A    between atoms: _548  and  _551
REMARK  221  A    between atoms: _551  and  _552
REMARK  222  A    between atoms: _558  and  _560
REMARK  223  A    between atoms: _560  and  _561
REMARK  224  A    between atoms: _560  and  _563
REMARK  225  A    between atoms: _563  and  _564
REMARK  226  A    between atoms: _567  and  _569
REMARK  227  A    between atoms: _569  and  _570
REMARK  228  A    between atoms: _572  and  _574
REMARK  229  A    between atoms: _574  and  _575
REMARK  230  A    between atoms: _574  and  _577
REMARK  231  A    between atoms: _577  and  _578
REMARK  232  A    between atoms: _581  and  _583
REMARK  233  A    between atoms: _583  and  _584
REMARK  234  A    between atoms: _583  and  _586
REMARK  235  A    between atoms: _586  and  _587
REMARK  236  A    between atoms: _593  and  _595
REMARK  237  A    between atoms: _595  and  _596
REMARK  238  A    between atoms: _595  and  _598
REMARK  239  A    between atoms: _598  and  _599
REMARK  240  A    between atoms: _599  and  _600
REMARK  241  A    between atoms: _605  and  _607
REMARK  242  A    between atoms: _607  and  _608
REMARK  243  A    between atoms: _607  and  _610
REMARK  244  A    between atoms: _610  and  _611
REMARK  245  A    between atoms: _614  and  _616
REMARK  246  A    between atoms: _616  and  _617
REMARK  247  A    between atoms: _616  and  _619
REMARK  248  A    between atoms: _619  and  _620
REMARK  249  A    between atoms: _622  and  _624
REMARK  250  A    between atoms: _624  and  _625
REMARK  251  A    between atoms: _624  and  _627
REMARK  252  A    between atoms: _627  and  _628
REMARK  253  A    between atoms: _634  and  _636
REMARK  254  A    between atoms: _636  and  _637
REMARK  255  A    between atoms: _636  and  _639
REMARK  256  A    between atoms: _639  and  _640
REMARK  257  A    between atoms: _645  and  _646
REMARK  258  A    between atoms: _648  and  _650
REMARK  259  A    between atoms: _650  and  _651
REMARK  260  A    between atoms: _650  and  _653
REMARK  261  A    between atoms: _653  and  _654
REMARK                            x       y       z     vdW  Elec       q    Type
REMARK                         _______ _______ _______ _____ _____    ______ ____
ROOT
ATOM      1  C   GLY A   8      27.934  -3.580 -51.317  0.00  0.00    +0.243 C 
ATOM      2  N   LYS A   9      26.915  -4.318 -50.882  0.00  0.00    -0.297 N 
ATOM      3  H   LYS A   9      26.295  -3.942 -50.137  0.00  0.00    +0.150 HD
ATOM      4  O   GLY A   8      28.719  -3.963 -52.208  0.00  0.00    -0.273 OA
ENDROOT
BRANCH   1   5
ATOM      5  CA  GLY A   8      28.095  -2.214 -50.675  0.00  0.00    +0.176 C 
BRANCH   5   8
ATOM      6  C   LYS A   7      28.339  -2.247 -48.257  0.00  0.00    +0.241 C 
ATOM      7  O   LYS A   7      29.501  -2.637 -48.336  0.00  0.00    -0.273 OA
ATOM      8  N   GLY A   8      27.557  -2.084 -49.327  0.00  0.00    -0.295 N 
ATOM      9  H   GLY A   8      26.550  -1.861 -49.196  0.00  0.00    +0.150 HD
BRANCH   6  10
ATOM     10  CA  LYS A   7      27.746  -1.946 -46.883  0.00  0.00    +0.149 C 
BRANCH  10  13
ATOM     11  C   ARG A   6      25.885  -0.390 -46.722  0.00  0.00    +0.241 C 
ATOM     12  O   ARG A   6      26.656   0.568 -46.699  0.00  0.00    -0.273 OA
ATOM     13  N   LYS A   7      26.312  -1.645 -46.869  0.00  0.00    -0.297 N 
ATOM     14  H   LYS A   7      25.622  -2.416 -46.974  0.00  0.00    +0.150 HD
BRANCH  11  15
ATOM     15  CA  ARG A   6      24.365  -0.146 -46.625  0.00  0.00    +0.149 C 
BRANCH  15  18
ATOM     16  C   PHE A   5      23.519  -1.916 -45.091  0.00  0.00    +0.241 C 
ATOM     17  O   PHE A   5      24.215  -1.566 -44.128  0.00  0.00    -0.273 OA
ATOM     18  N   ARG A   6      23.560  -1.331 -46.293  0.00  0.00    -0.297 N 
ATOM     19  H   ARG A   6      22.979  -1.745 -47.050  0.00  0.00    +0.150 HD
BRANCH  16  20
ATOM     20  CA  PHE A   5      22.558  -3.118 -44.965  0.00  0.00    +0.153 C 
BRANCH  20  22
ATOM     21  C   ALA A   4      24.120  -4.802 -44.157  0.00  0.00    +0.241 C 
ATOM     22  N   PHE A   5      23.010  -4.089 -43.971  0.00  0.00    -0.297 N 
ATOM     23  H   PHE A   5      22.455  -4.226 -43.102  0.00  0.00    +0.150 HD
ATOM     24  O   ALA A   4      24.820  -4.706 -45.175  0.00  0.00    -0.273 OA
BRANCH  21  25
ATOM     25  CA  ALA A   4      24.498  -5.758 -43.021  0.00  0.00    +0.149 C 
ATOM     26  CB  ALA A   4      25.382  -5.050 -41.996  0.00  0.00    +0.031 C 
BRANCH  25  28
ATOM     27  C   GLY A   3      24.517  -7.857 -44.276  0.00  0.00    +0.243 C 
ATOM     28  N   ALA A   4      25.132  -7.006 -43.462  0.00  0.00    -0.297 N 
ATOM     29  H   ALA A   4      26.091  -7.231 -43.128  0.00  0.00    +0.150 HD
ATOM     30  O   GLY A   3      23.443  -7.610 -44.812  0.00  0.00    -0.273 OA
BRANCH  27  31
ATOM     31  CA  GLY A   3      25.226  -9.169 -44.542  0.00  0.00    +0.176 C 
BRANCH  31  33
ATOM     32  C   ALA A   2      25.426 -10.469 -46.577  0.00  0.00    +0.241 C 
ATOM     33  N   GLY A   3      24.653  -9.853 -45.684  0.00  0.00    -0.295 N 
ATOM     34  H   GLY A   3      23.621  -9.863 -45.808  0.00  0.00    +0.150 HD
ATOM     35  O   ALA A   2      26.667 -10.503 -46.503  0.00  0.00    -0.273 OA
BRANCH  32  36
ATOM     36  CA  ALA A   2      24.702 -11.149 -47.732  0.00  0.00    +0.149 C 
ATOM     37  CB  ALA A   2      24.056 -12.447 -47.277  0.00  0.00    +0.031 C 
BRANCH  36  39
ATOM     38  C   VAL A   1      25.149 -11.391 -50.089  0.00  0.00    +0.238 C 
ATOM     39  N   ALA A   2      25.614 -11.400 -48.844  0.00  0.00    -0.297 N 
ATOM     40  H   ALA A   2      26.621 -11.585 -48.663  0.00  0.00    +0.150 HD
ATOM     41  O   VAL A   1      23.965 -11.133 -50.349  0.00  0.00    -0.274 OA
BRANCH  38  42
ATOM     42  CA  VAL A   1      26.137 -11.764 -51.193  0.00  0.00    +0.145 C 
BRANCH  42  43
ATOM     43  CB  VAL A   1      26.715 -10.507 -51.890  0.00  0.00    +0.025 C 
ATOM     44  CG2 VAL A   1      27.595  -9.721 -50.923  0.00  0.00    +0.002 C 
ATOM     45  CG1 VAL A   1      25.593  -9.620 -52.402  0.00  0.00    +0.002 C 
ENDBRANCH  42  43
BRANCH  42  46
ATOM     46  N   VAL A   1      25.468 -12.668 -52.120  0.00  0.00    -0.238 NA
ATOM     47  H   VAL A   1      24.549 -12.399 -52.526  0.00  0.00    +0.142 HD
ENDBRANCH  42  46
ENDBRANCH  38  42
ENDBRANCH  36  39
ENDBRANCH  32  36
ENDBRANCH  31  33
ENDBRANCH  27  31
ENDBRANCH  25  28
ENDBRANCH  21  25
ENDBRANCH  20  22
BRANCH  20  48
ATOM     48  CB  PHE A   5      21.097  -2.685 -44.699  0.00  0.00    +0.055 C 
BRANCH  48  49
ATOM     49  CG  PHE A   5      20.929  -1.632 -43.612  0.00  0.00    -0.020 A 
ATOM     50  CD2 PHE A   5      21.294  -1.887 -42.300  0.00  0.00    -0.004 A 
ATOM     51  CE2 PHE A   5      21.123  -0.934 -41.307  0.00  0.00    -0.000 A 
ATOM     52  CZ  PHE A   5      20.563   0.286 -41.610  0.00  0.00    -0.000 A 
ATOM     53  CE1 PHE A   5      20.169   0.553 -42.909  0.00  0.00    -0.000 A 
ATOM     54  CD1 PHE A   5      20.349  -0.406 -43.904  0.00  0.00    -0.004 A 
ENDBRANCH  48  49
ENDBRANCH  20  48
ENDBRANCH  16  20
ENDBRANCH  15  18
BRANCH  15  55
ATOM     55  CB  ARG A   6      24.082   1.052 -45.680  0.00  0.00    +0.033 C 
BRANCH  55  56
ATOM     56  CG  ARG A   6      22.613   1.444 -45.500  0.00  0.00    +0.045 C 
BRANCH  56  57
ATOM     57  CD  ARG A   6      21.802   1.321 -46.774  0.00  0.00    +0.174 C 
BRANCH  57  58
ATOM     58  NE  ARG A   6      22.157   2.358 -47.732  0.00  0.00    -0.265 N 
ATOM     59  HE  ARG A   6      22.460   3.280 -47.360  0.00  0.00    +0.259 HD
ATOM     60  CZ  ARG A   6      22.119   2.203 -49.051  0.00  0.00    +0.342 C 
ATOM     61  NH2 ARG A   6      21.748   1.048 -49.579  0.00  0.00    -0.292 N 
ATOM     62 HH21 ARG A   6      21.484   0.255 -48.961  0.00  0.00    +0.255 HD
ATOM     63 HH22 ARG A   6      21.720   0.934 -50.612  0.00  0.00    +0.255 HD
ATOM     64  NH1 ARG A   6      22.460   3.209 -49.843  0.00  0.00    -0.292 N 
ATOM     65 HH11 ARG A   6      22.756   4.117 -49.432  0.00  0.00    +0.255 HD
ATOM     66 HH12 ARG A   6      22.431   3.091 -50.876  0.00  0.00    +0.255 HD
ENDBRANCH  57  58
ENDBRANCH  56  57
ENDBRANCH  55  56
ENDBRANCH  15  55
ENDBRANCH  11  15
ENDBRANCH  10  13
BRANCH  10  67
ATOM     67  CB  LYS A   7      28.084  -3.097 -45.934  0.00  0.00    +0.029 C 
BRANCH  67  68
ATOM     68  CG  LYS A   7      27.583  -2.904 -44.503  0.00  0.00    +0.000 C 
BRANCH  68  69
ATOM     69  CD  LYS A   7      28.190  -1.681 -43.819  0.00  0.00    -0.024 C 
BRANCH  69  70
ATOM     70  CE  LYS A   7      27.791  -1.675 -42.337  0.00  0.00    -0.086 C 
BRANCH  70  71
ATOM     71  NZ  LYS A   7      28.298  -0.500 -41.572  0.00  0.00    +0.380 N 
ATOM     72  HZ1 LYS A   7      27.986  -0.571 -40.583  0.00  0.00    -0.089 HD
ATOM     73  HZ2 LYS A   7      29.337  -0.486 -41.609  0.00  0.00    -0.089 HD
ATOM     74  HZ3 LYS A   7      27.923   0.374 -41.993  0.00  0.00    -0.089 HD
ENDBRANCH  70  71
ENDBRANCH  69  70
ENDBRANCH  68  69
ENDBRANCH  67  68
ENDBRANCH  10  67
ENDBRANCH   6  10
ENDBRANCH   5   8
ENDBRANCH   1   5
BRANCH   2  75
ATOM     75  CA  LYS A   9      26.650  -5.649 -51.432  0.00  0.00    +0.149 C 
BRANCH  75  76
ATOM     76  C   LYS A   9      26.248  -5.591 -52.909  0.00  0.00    +0.241 C 
ATOM     77  N   SER A  10      25.232  -4.792 -53.215  0.00  0.00    -0.295 N 
ATOM     78  H   SER A  10      24.771  -4.244 -52.460  0.00  0.00    +0.150 HD
ATOM     79  O   LYS A   9      26.837  -6.261 -53.753  0.00  0.00    -0.273 OA
BRANCH  77  80
ATOM     80  CA  SER A  10      24.748  -4.665 -54.585  0.00  0.00    +0.178 C 
BRANCH  80  81
ATOM     81  C   SER A  10      25.813  -4.043 -55.519  0.00  0.00    +0.243 C 
ATOM     82  N   PHE A  11      26.565  -3.083 -54.983  0.00  0.00    -0.297 N 
ATOM     83  H   PHE A  11      26.352  -2.780 -54.011  0.00  0.00    +0.150 HD
ATOM     84  O   SER A  10      25.938  -4.427 -56.691  0.00  0.00    -0.273 OA
BRANCH  82  85
ATOM     85  CA  PHE A  11      27.674  -2.428 -55.680  0.00  0.00    +0.153 C 
BRANCH  85  86
ATOM     86  C   PHE A  11      28.636  -3.518 -56.118  0.00  0.00    +0.241 C 
ATOM     87  N   LEU A  12      28.936  -4.437 -55.204  0.00  0.00    -0.297 N 
ATOM     88  H   LEU A  12      28.499  -4.392 -54.262  0.00  0.00    +0.150 HD
ATOM     89  O   PHE A  11      29.077  -3.552 -57.278  0.00  0.00    -0.273 OA
BRANCH  87  90
ATOM     90  CA  LEU A  12      29.877  -5.508 -55.519  0.00  0.00    +0.149 C 
BRANCH  90  91
ATOM     91  C   LEU A  12      29.336  -6.397 -56.637  0.00  0.00    +0.241 C 
ATOM     92  N   MET A  13      28.068  -6.790 -56.511  0.00  0.00    -0.297 N 
ATOM     93  H   MET A  13      27.505  -6.434 -55.712  0.00  0.00    +0.150 HD
ATOM     94  O   LEU A  12      30.053  -6.700 -57.604  0.00  0.00    -0.273 OA
BRANCH  92  95
ATOM     95  CA  MET A  13      27.450  -7.705 -57.463  0.00  0.00    +0.149 C 
BRANCH  95  96
ATOM     96  C   MET A  13      27.480  -7.138 -58.877  0.00  0.00    +0.241 C 
ATOM     97  N   ASP A  14      27.400  -5.814 -58.986  0.00  0.00    -0.297 N 
ATOM     98  H   ASP A  14      27.336  -5.228 -58.129  0.00  0.00    +0.150 HD
ATOM     99  O   MET A  13      27.566  -7.889 -59.855  0.00  0.00    -0.273 OA
BRANCH  97 100
ATOM    100  CA  ASP A  14      27.401  -5.179 -60.297  0.00  0.00    +0.160 C 
BRANCH 100 101
ATOM    101  C   ASP A  14      28.764  -5.275 -60.973  0.00  0.00    +0.241 C 
ATOM    102  N   PHE A  15      29.826  -5.291 -60.172  0.00  0.00    -0.298 N 
ATOM    103  H   PHE A  15      29.714  -5.103 -59.155  0.00  0.00    +0.150 HD
ATOM    104  O   ASP A  14      28.855  -5.348 -62.207  0.00  0.00    -0.273 OA
BRANCH 102 105
ATOM    105  CA  PHE A  15      31.154  -5.574 -60.723  0.00  0.00    +0.141 C 
BRANCH 105 106
ATOM    106  C   PHE A  15      31.323  -7.063 -61.079  0.00  0.00    +0.227 C 
ATOM    107  O   PHE A  15      32.086  -7.419 -61.986  0.00  0.00    -0.286 OA
ENDBRANCH 105 106
BRANCH 105 108
ATOM    108  CB  PHE A  15      32.258  -5.110 -59.766  0.00  0.00    +0.054 C 
BRANCH 108 109
ATOM    109  CG  PHE A  15      32.592  -3.658 -59.899  0.00  0.00    -0.020 A 
ATOM    110  CD2 PHE A  15      32.237  -2.758 -58.903  0.00  0.00    -0.004 A 
ATOM    111  CE2 PHE A  15      32.536  -1.409 -59.023  0.00  0.00    -0.000 A 
ATOM    112  CZ  PHE A  15      33.206  -0.946 -60.147  0.00  0.00    -0.000 A 
ATOM    113  CE1 PHE A  15      33.572  -1.836 -61.156  0.00  0.00    -0.000 A 
ATOM    114  CD1 PHE A  15      33.264  -3.187 -61.024  0.00  0.00    -0.004 A 
ENDBRANCH 108 109
ENDBRANCH 105 108
ENDBRANCH 102 105
ENDBRANCH 100 101
BRANCH 100 115
ATOM    115  CB  ASP A  14      26.939  -3.732 -60.184  0.00  0.00    +0.143 C 
BRANCH 115 116
ATOM    116  CG  ASP A  14      25.464  -3.625 -59.875  0.00  0.00    +0.367 C 
ATOM    117  OD2 ASP A  14      25.050  -2.605 -59.291  0.00  0.00    -0.246 OA
ATOM    118  OD1 ASP A  14      24.716  -4.561 -60.220  0.00  0.00    -0.246 OA
ENDBRANCH 115 116
ENDBRANCH 100 115
ENDBRANCH  97 100
ENDBRANCH  95  96
BRANCH  95 119
ATOM    119  CB  MET A  13      25.994  -7.991 -57.075  0.00  0.00    +0.041 C 
BRANCH 119 120
ATOM    120  CG  MET A  13      25.823  -8.779 -55.788  0.00  0.00    +0.060 C 
BRANCH 120 121
ATOM    121  SD  MET A  13      26.545 -10.433 -55.832  0.00  0.00    -0.139 S 
ATOM    122  CE  MET A  13      25.853 -11.046 -57.354  0.00  0.00    +0.069 C 
ENDBRANCH 120 121
ENDBRANCH 119 120
ENDBRANCH  95 119
ENDBRANCH  92  95
ENDBRANCH  90  91
BRANCH  90 123
ATOM    123  CB  LEU A  12      30.195  -6.331 -54.272  0.00  0.00    +0.029 C 
BRANCH 123 124
ATOM    124  CG  LEU A  12      31.012  -7.610 -54.483  0.00  0.00    +0.002 C 
ATOM    125  CD2 LEU A  12      31.024  -8.436 -53.205  0.00  0.00    +0.000 C 
ATOM    126  CD1 LEU A  12      32.432  -7.288 -54.928  0.00  0.00    +0.000 C 
ENDBRANCH 123 124
ENDBRANCH  90 123
ENDBRANCH  87  90
ENDBRANCH  85  86
BRANCH  85 127
ATOM    127  CB  PHE A  11      28.355  -1.449 -54.708  0.00  0.00    +0.055 C 
BRANCH 127 128
ATOM    128  CG  PHE A  11      29.506  -0.654 -55.293  0.00  0.00    -0.020 A 
ATOM    129  CD2 PHE A  11      30.801  -1.132 -55.221  0.00  0.00    -0.004 A 
ATOM    130  CE2 PHE A  11      31.867  -0.390 -55.729  0.00  0.00    -0.000 A 
ATOM    131  CZ  PHE A  11      31.645   0.854 -56.294  0.00  0.00    -0.000 A 
ATOM    132  CE1 PHE A  11      30.355   1.357 -56.350  0.00  0.00    -0.000 A 
ATOM    133  CD1 PHE A  11      29.297   0.610 -55.839  0.00  0.00    -0.004 A 
ENDBRANCH 127 128
ENDBRANCH  85 127
ENDBRANCH  82  85
ENDBRANCH  80  81
BRANCH  80 134
ATOM    134  CB  SER A  10      23.473  -3.824 -54.587  0.00  0.00    +0.166 C 
BRANCH 134 135
ATOM    135  OG  SER A  10      22.456  -4.419 -53.785  0.00  0.00    -0.380 OA
ATOM    136  H   SER A  10      22.778  -4.500 -52.852  0.00  0.00    +0.211 HD
ENDBRANCH 134 135
ENDBRANCH  80 134
ENDBRANCH  77  80
ENDBRANCH  75  76
BRANCH  75 137
ATOM    137  CB  LYS A   9      25.558  -6.355 -50.610  0.00  0.00    +0.029 C 
BRANCH 137 138
ATOM    138  CG  LYS A   9      25.947  -6.606 -49.153  0.00  0.00    +0.000 C 
BRANCH 138 139
ATOM    139  CD  LYS A   9      24.852  -7.383 -48.384  0.00  0.00    -0.024 C 
BRANCH 139 140
ATOM    140  CE  LYS A   9      23.543  -6.628 -48.370  0.00  0.00    -0.086 C 
BRANCH 140 141
ATOM    141  NZ  LYS A   9      23.725  -5.261 -47.805  0.00  0.00    +0.380 N 
ATOM    142  HZ1 LYS A   9      24.080  -5.335 -46.830  0.00  0.00    -0.089 HD
ATOM    143  HZ2 LYS A   9      22.812  -4.762 -47.806  0.00  0.00    -0.089 HD
ATOM    144  HZ3 LYS A   9      24.409  -4.735 -48.386  0.00  0.00    -0.089 HD
ENDBRANCH 140 141
ENDBRANCH 139 140
ENDBRANCH 138 139
ENDBRANCH 137 138
ENDBRANCH  75 137
ENDBRANCH   2  75
TORSDOF 60
REMARK  Name = ../refined-set-2016/4idn/4idn_pocket.pdb
REMARK  261 active torsions:
REMARK  status: ('A' for Active; 'I' for Inactive)
REMARK    1  A    between atoms: _1  and  _3
REMARK    2  A    between atoms: _3  and  _4
REMARK    3  A    between atoms: _3  and  _6
REMARK    4  A    between atoms: _9  and  _11
REMARK    5  A    between atoms: _11  and  _12
REMARK    6  A    between atoms: _15  and  _17
REMARK    7  A    between atoms: _17  and  _18
REMARK    8  A    between atoms: _20  and  _22
REMARK    9  A    between atoms: _22  and  _23
REMARK   10  A    between atoms: _26  and  _28
REMARK   11  A    between atoms: _28  and  _29
REMARK   12  A    between atoms: _28  and  _31
REMARK   13  A    between atoms: _31  and  _32
REMARK   14  A    between atoms: _38  and  _40
REMARK   15  A    between atoms: _40  and  _41
REMARK   16  A    between atoms: _40  and  _43
REMARK   17  A    between atoms: _43  and  _44
REMARK   18  A    between atoms: _44  and  _45
REMARK   19  A    between atoms: _45  and  _46
REMARK   20  A    between atoms: _55  and  _57
REMARK   21  A    between atoms: _57  and  _58
REMARK   22  A    between atoms: _57  and  _60
REMARK   23  A    between atoms: _60  and  _61
REMARK   24  A    between atoms: _61  and  _62
REMARK   25  A    between atoms: _62  and  _63
REMARK   26  A    between atoms: _63  and  _64
REMARK   27  A    between atoms: _68  and  _70
REMARK   28  A    between atoms: _70  and  _71
REMARK   29  A    between atoms: _73  and  _75
REMARK   30  A    between atoms: _75  and  _76
REMARK   31  A    between atoms: _75  and  _78
REMARK   32  A    between atoms: _78  and  _79
REMARK   33  A    between atoms: _79  and  _80
REMARK   34  A    between atoms: _80  and  _81
REMARK   35  A    between atoms: _81  and  _82
REMARK   36  A    between atoms: _86  and  _88
REMARK   37  A    between atoms: _88  and  _89
REMARK   38  A    between atoms: _88  and  _91
REMARK   39  A    between atoms: _91  and  _92
REMARK   40  A    between atoms: _94  and  _96
REMARK   41  A    between atoms: _96  and  _97
REMARK   42  A    between atoms: _96  and  _99
REMARK   43  A    between atoms: _99  and  _100
REMARK   44  A    between atoms: _106  and  _108
REMARK   45  A    between atoms: _108  and  _109
REMARK   46  A    between atoms: _108  and  _111
REMARK   47  A    between atoms: _111  and  _112
REMARK   48  A    between atoms: _115  and  _117
REMARK   49  A    between atoms: _117  and  _118
REMARK   50  A    between atoms: _117  and  _120
REMARK   51  A    between atoms: _120  and  _121
REMARK   52  A    between atoms: _121  and  _122
REMARK   53  A    between atoms: _124  and  _126
REMARK   54  A    between atoms: _126  and  _127
REMARK   55  A    between atoms: _126  and  _129
REMARK   56  A    between atoms: _129  and  _130
REMARK   57  A    between atoms: _133  and  _135
REMARK   58  A    between atoms: _135  and  _136
REMARK   59  A    between atoms: _135  and  _138
REMARK   60  A    between atoms: _138  and  _139
REMARK   61  A    between atoms: _145  and  _147
REMARK   62  A    between atoms: _147  and  _148
REMARK   63  A    between atoms: _147  and  _150
REMARK   64  A    between atoms: _150  and  _151
REMARK   65  A    between atoms: _154  and  _156
REMARK   66  A    between atoms: _156  and  _157
REMARK   67  A    between atoms: _156  and  _159
REMARK   68  A    between atoms: _159  and  _160
REMARK   69  A    between atoms: _166  and  _168
REMARK   70  A    between atoms: _168  and  _169
REMARK   71  A    between atoms: _168  and  _171
REMARK   72  A    between atoms: _171  and  _172
REMARK   73  A    between atoms: _174  and  _176
REMARK   74  A    between atoms: _176  and  _177
REMARK   75  A    between atoms: _176  and  _179
REMARK   76  A    between atoms: _179  and  _180
REMARK   77  A    between atoms: _190  and  _192
REMARK   78  A    between atoms: _192  and  _193
REMARK   79  A    between atoms: _192  and  _195
REMARK   80  A    between atoms: _195  and  _196
REMARK   81  A    between atoms: _196  and  _197
REMARK   82  A    between atoms: _197  and  _198
REMARK   83  A    between atoms: _207  and  _209
REMARK   84  A    between atoms: _209  and  _210
REMARK   85  A    between atoms: _212  and  _214
REMARK   86  A    between atoms: _214  and  _215
REMARK   87  A    between atoms: _217  and  _219
REMARK   88  A    between atoms: _219  and  _220
REMARK   89  A    between atoms: _219  and  _222
REMARK   90  A    between atoms: _222  and  _223
REMARK   91  A    between atoms: _225  and  _227
REMARK   92  A    between atoms: _227  and  _228
REMARK   93  A    between atoms: _227  and  _230
REMARK   94  A    between atoms: _230  and  _231
REMARK   95  A    between atoms: _231  and  _232
REMARK   96  A    between atoms: _235  and  _237
REMARK   97  A    between atoms: _237  and  _238
REMARK   98  A    between atoms: _237  and  _240
REMARK   99  A    between atoms: _240  and  _241
REMARK  100  A    between atoms: _241  and  _242
REMARK  101  A    between atoms: _242  and  _243
REMARK  102  A    between atoms: _252  and  _254
REMARK  103  A    between atoms: _254  and  _255
REMARK  104  A    between atoms: _254  and  _257
REMARK  105  A    between atoms: _257  and  _258
REMARK  106  A    between atoms: _258  and  _259
REMARK  107  A    between atoms: _262  and  _264
REMARK  108  A    between atoms: _264  and  _265
REMARK  109  A    between atoms: _264  and  _267
REMARK  110  A    between atoms: _267  and  _268
REMARK  111  A    between atoms: _271  and  _273
REMARK  112  A    between atoms: _273  and  _274
REMARK  113  A    between atoms: _273  and  _276
REMARK  114  A    between atoms: _276  and  _277
REMARK  115  A    between atoms: _280  and  _282
REMARK  116  A    between atoms: _282  and  _283
REMARK  117  A    between atoms: _282  and  _285
REMARK  118  A    between atoms: _285  and  _286
REMARK  119  A    between atoms: _286  and  _287
REMARK  120  A    between atoms: _292  and  _294
REMARK  121  A    between atoms: _294  and  _295
REMARK  122  A    between atoms: _294  and  _297
REMARK  123  A    between atoms: _297  and  _298
REMARK  124  A    between atoms: _301  and  _303
REMARK  125  A    between atoms: _303  and  _304
REMARK  126  A    between atoms: _303  and  _306
REMARK  127  A    between atoms: _306  and  _307
REMARK  128  A    between atoms: _310  and  _312
REMARK  129  A    between atoms: _312  and  _313
REMARK  130  A    between atoms: _312  and  _315
REMARK  131  A    between atoms: _315  and  _316
REMARK  132  A    between atoms: _316  and  _317
REMARK  133  A    between atoms: _322  and  _324
REMARK  134  A    between atoms: _324  and  _325
REMARK  135  A    between atoms: _327  and  _329
REMARK  136  A    between atoms: _329  and  _330
REMARK  137  A    between atoms: _329  and  _332
REMARK  138  A    between atoms: _332  and  _333
REMARK  139  A    between atoms: _336  and  _338
REMARK  140  A    between atoms: _338  and  _339
REMARK  141  A    between atoms: _338  and  _341
REMARK  142  A    between atoms: _341  and  _342
REMARK  143  A    between atoms: _345  and  _347
REMARK  144  A    between atoms: _347  and  _348
REMARK  145  A    between atoms: _347  and  _350
REMARK  146  A    between atoms: _350  and  _351
REMARK  147  A    between atoms: _356  and  _358
REMARK  148  A    between atoms: _358  and  _359
REMARK  149  A    between atoms: _358  and  _361
REMARK  150  A    between atoms: _361  and  _362
REMARK  151  A    between atoms: _365  and  _367
REMARK  152  A    between atoms: _367  and  _368
REMARK  153  A    between atoms: _367  and  _370
REMARK  154  A    between atoms: _370  and  _371
REMARK  155  A    between atoms: _373  and  _375
REMARK  156  A    between atoms: _375  and  _376
REMARK  157  A    between atoms: _375  and  _378
REMARK  158  A    between atoms: _378  and  _379
REMARK  159  A    between atoms: _379  and  _380
REMARK  160  A    between atoms: _385  and  _387
REMARK  161  A    between atoms: _387  and  _388
REMARK  162  A    between atoms: _387  and  _390
REMARK  163  A    between atoms: _390  and  _391
REMARK  164  A    between atoms: _394  and  _396
REMARK  165  A    between atoms: _396  and  _397
REMARK  166  A    between atoms: _396  and  _399
REMARK  167  A    between atoms: _402  and  _404
REMARK  168  A    between atoms: _404  and  _405
REMARK  169  A    between atoms: _404  and  _407
REMARK  170  A    between atoms: _407  and  _408
REMARK  171  A    between atoms: _408  and  _409
REMARK  172  A    between atoms: _409  and  _410
REMARK  173  A    between atoms: _419  and  _421
REMARK  174  A    between atoms: _421  and  _422
REMARK  175  A    between atoms: _421  and  _424
REMARK  176  A    between atoms: _424  and  _425
REMARK  177  A    between atoms: _428  and  _430
REMARK  178  A    between atoms: _430  and  _431
REMARK  179  A    between atoms: _430  and  _433
REMARK  180  A    between atoms: _433  and  _434
REMARK  181  A    between atoms: _444  and  _446
REMARK  182  A    between atoms: _446  and  _447
REMARK  183  A    between atoms: _446  and  _449
REMARK  184  A    between atoms: _449  and  _450
REMARK  185  A    between atoms: _454  and  _455
REMARK  186  A    between atoms: _460  and  _462
REMARK  187  A    between atoms: _462  and  _463
REMARK  188  A    between atoms: _462  and  _465
REMARK  189  A    between atoms: _465  and  _466
REMARK  190  A    between atoms: _472  and  _473
REMARK  191  A    between atoms: _478  and  _480
REMARK  192  A    between atoms: _480  and  _481
REMARK  193  A    between atoms: _483  and  _485
REMARK  194  A    between atoms: _485  and  _486
REMARK  195  A    between atoms: _485  and  _488
REMARK  196  A    between atoms: _488  and  _489
REMARK  197  A    between atoms: _492  and  _494
REMARK  198  A    between atoms: _494  and  _495
REMARK  199  A    between atoms: _494  and  _497
REMARK  200  A    between atoms: _497  and  _498
REMARK  201  A    between atoms: _498  and  _499
REMARK  202  A    between atoms: _499  and  _500
REMARK  203  A    between atoms: _500  and  _501
REMARK  204  A    between atoms: _505  and  _507
REMARK  205  A    between atoms: _507  and  _508
REMARK  206  A    between atoms: _507  and  _510
REMARK  207  A    between atoms: _513  and  _515
REMARK  208  A    between atoms: _515  and  _516
REMARK  209  A    between atoms: _519  and  _521
REMARK  210  A    between atoms: _521  and  _522
REMARK  211  A    between atoms: _521  and  _524
REMARK  212  A    between atoms: _524  and  _525
REMARK  213  A    between atoms: _528  and  _530
REMARK  214  A    between atoms: _530  and  _531
REMARK  215  A    between atoms: _530  and  _533
REMARK  216  A    between atoms: _533  and  _534
REMARK  217  A    between atoms: _540  and  _541
REMARK  218  A    between atoms: _546  and  _548
REMARK  219  A    between atoms: _548  and  _549
REMARK  220  A    between atoms: _548  and  _551
REMARK  221  A    between atoms: _551  and  _552
REMARK  222  A    between atoms: _558  and  _560
REMARK  223  A    between atoms: _560  and  _561
REMARK  224  A    between atoms: _560  and  _563
REMARK  225  A    between atoms: _563  and  _564
REMARK  226  A    between atoms: _567  and  _569
REMARK  227  A    between atoms: _569  and  _570
REMARK  228  A    between atoms: _572  and  _574
REMARK  229  A    between atoms: _574  and  _575
REMARK  230  A    between atoms: _574  and  _577
REMARK  231  A    between atoms: _577  and  _578
REMARK  232  A    between atoms: _581  and  _583
REMARK  233  A    between atoms: _583  and  _584
REMARK  234  A    between atoms: _583  and  _586
REMARK  235  A    between atoms: _586  and  _587
REMARK  236  A    between atoms: _593  and  _595
REMARK  237  A    between atoms: _595  and  _596
REMARK  238  A    between atoms: _595  and  _598
REMARK  239  A    between atoms: _598  and  _599
REMARK  240  A    between atoms: _599  and  _600
REMARK  241  A    between atoms: _605  and  _607
REMARK  242  A    between atoms: _607  and  _608
REMARK  243  A    between atoms: _607  and  _610
REMARK  244  A    between atoms: _610  and  _611
REMARK  245  A    between atoms: _614  and  _616
REMARK  246  A    between atoms: _616  and  _617
REMARK  247  A    between atoms: _616  and  _619
REMARK  248  A    between atoms: _619  and  _620
REMARK  249  A    between atoms: _622  and  _624
REMARK  250  A    between atoms: _624  and  _625
REMARK  251  A    between atoms: _624  and  _627
REMARK  252  A    between atoms: _627  and  _628
REMARK  253  A    between atoms: _634  and  _636
REMARK  254  A    between atoms: _636  and  _637
REMARK  255  A    between atoms: _636  and  _639
REMARK  256  A    between atoms: _639  and  _640
REMARK  257  A    between atoms: _645  and  _646
REMARK  258  A    between atoms: _648  and  _650
REMARK  259  A    between atoms: _650  and  _651
REMARK  260  A    between atoms: _650  and  _653
REMARK  261  A    between atoms: _653  and  _654
REMARK                            x       y       z     vdW  Elec       q    Type
REMARK                         _______ _______ _______ _____ _____    ______ ____
ROOT
ATOM      1  CA  LEU A   1      27.941   1.090 -62.660  0.00  0.00    +0.133 C 
ENDROOT
BRANCH   1   2
ATOM      2  N   LEU A   1      28.152   2.453 -63.131  0.00  0.00    -0.239 NA
ATOM      3  H   LEU A   1      28.197   3.229 -62.440  0.00  0.00    +0.142 HD
ENDBRANCH   1   2
BRANCH   1   4
ATOM      4  C   LEU A   1      26.441   0.754 -62.588  0.00  0.00    +0.224 C 
ATOM      5  O   LEU A   1      25.678   1.414 -61.867  0.00  0.00    -0.287 OA
ENDBRANCH   1   4
BRANCH   1   6
ATOM      6  CB  LEU A   1      28.586   0.925 -61.286  0.00  0.00    +0.025 C 
BRANCH   6   7
ATOM      7  CG  LEU A   1      28.506  -0.470 -60.675  0.00  0.00    +0.002 C 
ATOM      8  CD2 LEU A   1      28.948  -0.420 -59.225  0.00  0.00    +0.000 C 
ATOM      9  CD1 LEU A   1      29.367  -1.441 -61.477  0.00  0.00    +0.000 C 
ENDBRANCH   6   7
ENDBRANCH   1   6
TORSDOF 4
REMARK  Name = ../refined-set-2016/4idn/4idn_pocket.pdb
REMARK  261 active torsions:
REMARK  status: ('A' for Active; 'I' for Inactive)
REMARK    1  A    between atoms: _1  and  _3
REMARK    2  A    between atoms: _3  and  _4
REMARK    3  A    between atoms: _3  and  _6
REMARK    4  A    between atoms: _9  and  _11
REMARK    5  A    between atoms: _11  and  _12
REMARK    6  A    between atoms: _15  and  _17
REMARK    7  A    between atoms: _17  and  _18
REMARK    8  A    between atoms: _20  and  _22
REMARK    9  A    between atoms: _22  and  _23
REMARK   10  A    between atoms: _26  and  _28
REMARK   11  A    between atoms: _28  and  _29
REMARK   12  A    between atoms: _28  and  _31
REMARK   13  A    between atoms: _31  and  _32
REMARK   14  A    between atoms: _38  and  _40
REMARK   15  A    between atoms: _40  and  _41
REMARK   16  A    between atoms: _40  and  _43
REMARK   17  A    between atoms: _43  and  _44
REMARK   18  A    between atoms: _44  and  _45
REMARK   19  A    between atoms: _45  and  _46
REMARK   20  A    between atoms: _55  and  _57
REMARK   21  A    between atoms: _57  and  _58
REMARK   22  A    between atoms: _57  and  _60
REMARK   23  A    between atoms: _60  and  _61
REMARK   24  A    between atoms: _61  and  _62
REMARK   25  A    between atoms: _62  and  _63
REMARK   26  A    between atoms: _63  and  _64
REMARK   27  A    between atoms: _68  and  _70
REMARK   28  A    between atoms: _70  and  _71
REMARK   29  A    between atoms: _73  and  _75
REMARK   30  A    between atoms: _75  and  _76
REMARK   31  A    between atoms: _75  and  _78
REMARK   32  A    between atoms: _78  and  _79
REMARK   33  A    between atoms: _79  and  _80
REMARK   34  A    between atoms: _80  and  _81
REMARK   35  A    between atoms: _81  and  _82
REMARK   36  A    between atoms: _86  and  _88
REMARK   37  A    between atoms: _88  and  _89
REMARK   38  A    between atoms: _88  and  _91
REMARK   39  A    between atoms: _91  and  _92
REMARK   40  A    between atoms: _94  and  _96
REMARK   41  A    between atoms: _96  and  _97
REMARK   42  A    between atoms: _96  and  _99
REMARK   43  A    between atoms: _99  and  _100
REMARK   44  A    between atoms: _106  and  _108
REMARK   45  A    between atoms: _108  and  _109
REMARK   46  A    between atoms: _108  and  _111
REMARK   47  A    between atoms: _111  and  _112
REMARK   48  A    between atoms: _115  and  _117
REMARK   49  A    between atoms: _117  and  _118
REMARK   50  A    between atoms: _117  and  _120
REMARK   51  A    between atoms: _120  and  _121
REMARK   52  A    between atoms: _121  and  _122
REMARK   53  A    between atoms: _124  and  _126
REMARK   54  A    between atoms: _126  and  _127
REMARK   55  A    between atoms: _126  and  _129
REMARK   56  A    between atoms: _129  and  _130
REMARK   57  A    between atoms: _133  and  _135
REMARK   58  A    between atoms: _135  and  _136
REMARK   59  A    between atoms: _135  and  _138
REMARK   60  A    between atoms: _138  and  _139
REMARK   61  A    between atoms: _145  and  _147
REMARK   62  A    between atoms: _147  and  _148
REMARK   63  A    between atoms: _147  and  _150
REMARK   64  A    between atoms: _150  and  _151
REMARK   65  A    between atoms: _154  and  _156
REMARK   66  A    between atoms: _156  and  _157
REMARK   67  A    between atoms: _156  and  _159
REMARK   68  A    between atoms: _159  and  _160
REMARK   69  A    between atoms: _166  and  _168
REMARK   70  A    between atoms: _168  and  _169
REMARK   71  A    between atoms: _168  and  _171
REMARK   72  A    between atoms: _171  and  _172
REMARK   73  A    between atoms: _174  and  _176
REMARK   74  A    between atoms: _176  and  _177
REMARK   75  A    between atoms: _176  and  _179
REMARK   76  A    between atoms: _179  and  _180
REMARK   77  A    between atoms: _190  and  _192
REMARK   78  A    between atoms: _192  and  _193
REMARK   79  A    between atoms: _192  and  _195
REMARK   80  A    between atoms: _195  and  _196
REMARK   81  A    between atoms: _196  and  _197
REMARK   82  A    between atoms: _197  and  _198
REMARK   83  A    between atoms: _207  and  _209
REMARK   84  A    between atoms: _209  and  _210
REMARK   85  A    between atoms: _212  and  _214
REMARK   86  A    between atoms: _214  and  _215
REMARK   87  A    between atoms: _217  and  _219
REMARK   88  A    between atoms: _219  and  _220
REMARK   89  A    between atoms: _219  and  _222
REMARK   90  A    between atoms: _222  and  _223
REMARK   91  A    between atoms: _225  and  _227
REMARK   92  A    between atoms: _227  and  _228
REMARK   93  A    between atoms: _227  and  _230
REMARK   94  A    between atoms: _230  and  _231
REMARK   95  A    between atoms: _231  and  _232
REMARK   96  A    between atoms: _235  and  _237
REMARK   97  A    between atoms: _237  and  _238
REMARK   98  A    between atoms: _237  and  _240
REMARK   99  A    between atoms: _240  and  _241
REMARK  100  A    between atoms: _241  and  _242
REMARK  101  A    between atoms: _242  and  _243
REMARK  102  A    between atoms: _252  and  _254
REMARK  103  A    between atoms: _254  and  _255
REMARK  104  A    between atoms: _254  and  _257
REMARK  105  A    between atoms: _257  and  _258
REMARK  106  A    between atoms: _258  and  _259
REMARK  107  A    between atoms: _262  and  _264
REMARK  108  A    between atoms: _264  and  _265
REMARK  109  A    between atoms: _264  and  _267
REMARK  110  A    between atoms: _267  and  _268
REMARK  111  A    between atoms: _271  and  _273
REMARK  112  A    between atoms: _273  and  _274
REMARK  113  A    between atoms: _273  and  _276
REMARK  114  A    between atoms: _276  and  _277
REMARK  115  A    between atoms: _280  and  _282
REMARK  116  A    between atoms: _282  and  _283
REMARK  117  A    between atoms: _282  and  _285
REMARK  118  A    between atoms: _285  and  _286
REMARK  119  A    between atoms: _286  and  _287
REMARK  120  A    between atoms: _292  and  _294
REMARK  121  A    between atoms: _294  and  _295
REMARK  122  A    between atoms: _294  and  _297
REMARK  123  A    between atoms: _297  and  _298
REMARK  124  A    between atoms: _301  and  _303
REMARK  125  A    between atoms: _303  and  _304
REMARK  126  A    between atoms: _303  and  _306
REMARK  127  A    between atoms: _306  and  _307
REMARK  128  A    between atoms: _310  and  _312
REMARK  129  A    between atoms: _312  and  _313
REMARK  130  A    between atoms: _312  and  _315
REMARK  131  A    between atoms: _315  and  _316
REMARK  132  A    between atoms: _316  and  _317
REMARK  133  A    between atoms: _322  and  _324
REMARK  134  A    between atoms: _324  and  _325
REMARK  135  A    between atoms: _327  and  _329
REMARK  136  A    between atoms: _329  and  _330
REMARK  137  A    between atoms: _329  and  _332
REMARK  138  A    between atoms: _332  and  _333
REMARK  139  A    between atoms: _336  and  _338
REMARK  140  A    between atoms: _338  and  _339
REMARK  141  A    between atoms: _338  and  _341
REMARK  142  A    between atoms: _341  and  _342
REMARK  143  A    between atoms: _345  and  _347
REMARK  144  A    between atoms: _347  and  _348
REMARK  145  A    between atoms: _347  and  _350
REMARK  146  A    between atoms: _350  and  _351
REMARK  147  A    between atoms: _356  and  _358
REMARK  148  A    between atoms: _358  and  _359
REMARK  149  A    between atoms: _358  and  _361
REMARK  150  A    between atoms: _361  and  _362
REMARK  151  A    between atoms: _365  and  _367
REMARK  152  A    between atoms: _367  and  _368
REMARK  153  A    between atoms: _367  and  _370
REMARK  154  A    between atoms: _370  and  _371
REMARK  155  A    between atoms: _373  and  _375
REMARK  156  A    between atoms: _375  and  _376
REMARK  157  A    between atoms: _375  and  _378
REMARK  158  A    between atoms: _378  and  _379
REMARK  159  A    between atoms: _379  and  _380
REMARK  160  A    between atoms: _385  and  _387
REMARK  161  A    between atoms: _387  and  _388
REMARK  162  A    between atoms: _387  and  _390
REMARK  163  A    between atoms: _390  and  _391
REMARK  164  A    between atoms: _394  and  _396
REMARK  165  A    between atoms: _396  and  _397
REMARK  166  A    between atoms: _396  and  _399
REMARK  167  A    between atoms: _402  and  _404
REMARK  168  A    between atoms: _404  and  _405
REMARK  169  A    between atoms: _404  and  _407
REMARK  170  A    between atoms: _407  and  _408
REMARK  171  A    between atoms: _408  and  _409
REMARK  172  A    between atoms: _409  and  _410
REMARK  173  A    between atoms: _419  and  _421
REMARK  174  A    between atoms: _421  and  _422
REMARK  175  A    between atoms: _421  and  _424
REMARK  176  A    between atoms: _424  and  _425
REMARK  177  A    between atoms: _428  and  _430
REMARK  178  A    between atoms: _430  and  _431
REMARK  179  A    between atoms: _430  and  _433
REMARK  180  A    between atoms: _433  and  _434
REMARK  181  A    between atoms: _444  and  _446
REMARK  182  A    between atoms: _446  and  _447
REMARK  183  A    between atoms: _446  and  _449
REMARK  184  A    between atoms: _449  and  _450
REMARK  185  A    between atoms: _454  and  _455
REMARK  186  A    between atoms: _460  and  _462
REMARK  187  A    between atoms: _462  and  _463
REMARK  188  A    between atoms: _462  and  _465
REMARK  189  A    between atoms: _465  and  _466
REMARK  190  A    between atoms: _472  and  _473
REMARK  191  A    between atoms: _478  and  _480
REMARK  192  A    between atoms: _480  and  _481
REMARK  193  A    between atoms: _483  and  _485
REMARK  194  A    between atoms: _485  and  _486
REMARK  195  A    between atoms: _485  and  _488
REMARK  196  A    between atoms: _488  and  _489
REMARK  197  A    between atoms: _492  and  _494
REMARK  198  A    between atoms: _494  and  _495
REMARK  199  A    between atoms: _494  and  _497
REMARK  200  A    between atoms: _497  and  _498
REMARK  201  A    between atoms: _498  and  _499
REMARK  202  A    between atoms: _499  and  _500
REMARK  203  A    between atoms: _500  and  _501
REMARK  204  A    between atoms: _505  and  _507
REMARK  205  A    between atoms: _507  and  _508
REMARK  206  A    between atoms: _507  and  _510
REMARK  207  A    between atoms: _513  and  _515
REMARK  208  A    between atoms: _515  and  _516
REMARK  209  A    between atoms: _519  and  _521
REMARK  210  A    between atoms: _521  and  _522
REMARK  211  A    between atoms: _521  and  _524
REMARK  212  A    between atoms: _524  and  _525
REMARK  213  A    between atoms: _528  and  _530
REMARK  214  A    between atoms: _530  and  _531
REMARK  215  A    between atoms: _530  and  _533
REMARK  216  A    between atoms: _533  and  _534
REMARK  217  A    between atoms: _540  and  _541
REMARK  218  A    between atoms: _546  and  _548
REMARK  219  A    between atoms: _548  and  _549
REMARK  220  A    between atoms: _548  and  _551
REMARK  221  A    between atoms: _551  and  _552
REMARK  222  A    between atoms: _558  and  _560
REMARK  223  A    between atoms: _560  and  _561
REMARK  224  A    between atoms: _560  and  _563
REMARK  225  A    between atoms: _563  and  _564
REMARK  226  A    between atoms: _567  and  _569
REMARK  227  A    between atoms: _569  and  _570
REMARK  228  A    between atoms: _572  and  _574
REMARK  229  A    between atoms: _574  and  _575
REMARK  230  A    between atoms: _574  and  _577
REMARK  231  A    between atoms: _577  and  _578
REMARK  232  A    between atoms: _581  and  _583
REMARK  233  A    between atoms: _583  and  _584
REMARK  234  A    between atoms: _583  and  _586
REMARK  235  A    between atoms: _586  and  _587
REMARK  236  A    between atoms: _593  and  _595
REMARK  237  A    between atoms: _595  and  _596
REMARK  238  A    between atoms: _595  and  _598
REMARK  239  A    between atoms: _598  and  _599
REMARK  240  A    between atoms: _599  and  _600
REMARK  241  A    between atoms: _605  and  _607
REMARK  242  A    between atoms: _607  and  _608
REMARK  243  A    between atoms: _607  and  _610
REMARK  244  A    between atoms: _610  and  _611
REMARK  245  A    between atoms: _614  and  _616
REMARK  246  A    between atoms: _616  and  _617
REMARK  247  A    between atoms: _616  and  _619
REMARK  248  A    between atoms: _619  and  _620
REMARK  249  A    between atoms: _622  and  _624
REMARK  250  A    between atoms: _624  and  _625
REMARK  251  A    between atoms: _624  and  _627
REMARK  252  A    between atoms: _627  and  _628
REMARK  253  A    between atoms: _634  and  _636
REMARK  254  A    between atoms: _636  and  _637
REMARK  255  A    between atoms: _636  and  _639
REMARK  256  A    between atoms: _639  and  _640
REMARK  257  A    between atoms: _645  and  _646
REMARK  258  A    between atoms: _648  and  _650
REMARK  259  A    between atoms: _650  and  _651
REMARK  260  A    between atoms: _650  and  _653
REMARK  261  A    between atoms: _653  and  _654
REMARK                            x       y       z     vdW  Elec       q    Type
REMARK                         _______ _______ _______ _____ _____    ______ ____
ROOT
ATOM      1  C   GLY A   6      21.876   6.372 -47.148  0.00  0.00    +0.243 C 
ATOM      2  N   SER A   7      21.261   6.740 -46.026  0.00  0.00    -0.295 N 
ATOM      3  H   SER A   7      20.744   7.642 -46.003  0.00  0.00    +0.150 HD
ATOM      4  O   GLY A   6      22.464   5.292 -47.275  0.00  0.00    -0.273 OA
ENDROOT
BRANCH   1   5
ATOM      5  CA  GLY A   6      21.822   7.350 -48.300  0.00  0.00    +0.176 C 
BRANCH   5   7
ATOM      6  C   GLY A   5      22.819   6.462 -50.320  0.00  0.00    +0.243 C 
ATOM      7  N   GLY A   6      22.951   7.142 -49.184  0.00  0.00    -0.295 N 
ATOM      8  H   GLY A   6      23.880   7.531 -48.926  0.00  0.00    +0.150 HD
ATOM      9  O   GLY A   5      21.723   6.031 -50.726  0.00  0.00    -0.273 OA
BRANCH   6  10
ATOM     10  CA  GLY A   5      24.089   6.238 -51.132  0.00  0.00    +0.176 C 
BRANCH  10  13
ATOM     11  C   ARG A   4      23.464   4.510 -52.709  0.00  0.00    +0.241 C 
ATOM     12  O   ARG A   4      23.621   3.609 -51.867  0.00  0.00    -0.273 OA
ATOM     13  N   GLY A   5      23.731   5.794 -52.467  0.00  0.00    -0.295 N 
ATOM     14  H   GLY A   5      23.682   6.485 -53.243  0.00  0.00    +0.150 HD
BRANCH  11  15
ATOM     15  CA  ARG A   4      22.929   4.185 -54.090  0.00  0.00    +0.149 C 
BRANCH  15  17
ATOM     16  C   TRP A   3      22.594   2.180 -55.443  0.00  0.00    +0.241 C 
ATOM     17  N   ARG A   4      22.904   2.737 -54.273  0.00  0.00    -0.297 N 
ATOM     18  H   ARG A   4      23.135   2.122 -53.467  0.00  0.00    +0.150 HD
ATOM     19  O   TRP A   3      22.340   2.835 -56.460  0.00  0.00    -0.273 OA
BRANCH  16  20
ATOM     20  CA  TRP A   3      22.592   0.659 -55.490  0.00  0.00    +0.153 C 
BRANCH  20  23
ATOM     21  C   SER A   2      20.969  -0.802 -56.590  0.00  0.00    +0.243 C 
ATOM     22  O   SER A   2      20.879  -1.526 -55.587  0.00  0.00    -0.273 OA
ATOM     23  N   TRP A   3      21.796   0.240 -56.646  0.00  0.00    -0.297 N 
ATOM     24  H   TRP A   3      21.879   0.772 -57.536  0.00  0.00    +0.150 HD
BRANCH  21  25
ATOM     25  CA  SER A   2      20.136  -1.089 -57.859  0.00  0.00    +0.178 C 
BRANCH  25  27
ATOM     26  C   PHE A   1      21.344  -3.013 -58.747  0.00  0.00    +0.239 C 
ATOM     27  N   SER A   2      20.218  -2.485 -58.289  0.00  0.00    -0.295 N 
ATOM     28  H   SER A   2      19.367  -3.081 -58.234  0.00  0.00    +0.150 HD
ATOM     29  O   PHE A   1      22.413  -2.400 -58.757  0.00  0.00    -0.274 OA
BRANCH  26  30
ATOM     30  CA  PHE A   1      21.259  -4.446 -59.261  0.00  0.00    +0.149 C 
BRANCH  30  31
ATOM     31  N   PHE A   1      22.032  -4.532 -60.493  0.00  0.00    -0.238 NA
ATOM     32  H   PHE A   1      22.884  -5.128 -60.523  0.00  0.00    +0.142 HD
ENDBRANCH  30  31
BRANCH  30  33
ATOM     33  CB  PHE A   1      21.823  -5.401 -58.211  0.00  0.00    +0.053 C 
BRANCH  33  34
ATOM     34  CG  PHE A   1      21.827  -6.839 -58.637  0.00  0.00    -0.020 A 
ATOM     35  CD2 PHE A   1      20.643  -7.566 -58.678  0.00  0.00    -0.004 A 
ATOM     36  CE2 PHE A   1      20.645  -8.898 -59.064  0.00  0.00    -0.000 A 
ATOM     37  CZ  PHE A   1      21.830  -9.514 -59.409  0.00  0.00    -0.000 A 
ATOM     38  CE1 PHE A   1      23.016  -8.804 -59.367  0.00  0.00    -0.000 A 
ATOM     39  CD1 PHE A   1      23.011  -7.470 -58.980  0.00  0.00    -0.004 A 
ENDBRANCH  33  34
ENDBRANCH  30  33
ENDBRANCH  26  30
ENDBRANCH  25  27
BRANCH  25  40
ATOM     40  CB  SER A   2      18.661  -0.731 -57.634  0.00  0.00    +0.166 C 
BRANCH  40  41
ATOM     41  OG  SER A   2      18.522   0.612 -57.214  0.00  0.00    -0.380 OA
ATOM     42  H   SER A   2      19.014   0.744 -56.365  0.00  0.00    +0.211 HD
ENDBRANCH  40  41
ENDBRANCH  25  40
ENDBRANCH  21  25
ENDBRANCH  20  23
BRANCH  20  43
ATOM     43  CB  TRP A   3      24.035   0.156 -55.606  0.00  0.00    +0.057 C 
BRANCH  43  44
ATOM     44  CG  TRP A   3      24.782   0.767 -56.759  0.00  0.00    -0.002 A 
ATOM     45  CD2 TRP A   3      25.658   1.899 -56.711  0.00  0.00    +0.013 A 
ATOM     46  CE3 TRP A   3      26.093   2.741 -55.688  0.00  0.00    +0.001 A 
ATOM     47  CZ3 TRP A   3      26.981   3.760 -55.997  0.00  0.00    +0.000 A 
ATOM     48  CH2 TRP A   3      27.441   3.952 -57.304  0.00  0.00    +0.001 A 
ATOM     49  CZ2 TRP A   3      27.037   3.142 -58.326  0.00  0.00    +0.017 A 
ATOM     50  CE2 TRP A   3      26.143   2.112 -58.017  0.00  0.00    +0.056 A 
ATOM     51  NE1 TRP A   3      25.581   1.156 -58.826  0.00  0.00    -0.352 N 
ATOM     52  HE1 TRP A   3      25.744   1.057 -59.848  0.00  0.00    +0.166 HD
ATOM     53  CD1 TRP A   3      24.768   0.350 -58.065  0.00  0.00    +0.068 A 
ENDBRANCH  43  44
ENDBRANCH  20  43
ENDBRANCH  16  20
ENDBRANCH  15  17
BRANCH  15  54
ATOM     54  CB  ARG A   4      21.516   4.768 -54.216  0.00  0.00    +0.033 C 
BRANCH  54  55
ATOM     55  CG  ARG A   4      20.467   4.015 -53.385  0.00  0.00    +0.045 C 
BRANCH  55  56
ATOM     56  CD  ARG A   4      19.307   4.942 -52.966  0.00  0.00    +0.174 C 
BRANCH  56  57
ATOM     57  NE  ARG A   4      18.295   4.232 -52.171  0.00  0.00    -0.265 N 
ATOM     58  CZ  ARG A   4      18.339   4.089 -50.846  0.00  0.00    +0.342 C 
ATOM     59  NH2 ARG A   4      19.345   4.609 -50.141  0.00  0.00    -0.292 N 
ATOM     60 HH21 ARG A   4      19.371   4.492 -49.108  0.00  0.00    +0.255 HD
ATOM     61 HH22 ARG A   4      20.103   5.131 -50.624  0.00  0.00    +0.255 HD
ATOM     62  NH1 ARG A   4      17.377   3.422 -50.216  0.00  0.00    -0.292 N 
ATOM     63 HH11 ARG A   4      17.412   3.311 -49.183  0.00  0.00    +0.255 HD
ATOM     64 HH12 ARG A   4      16.589   3.011 -50.757  0.00  0.00    +0.255 HD
ATOM     65  HE  ARG A   4      17.489   3.812 -52.677  0.00  0.00    +0.259 HD
ENDBRANCH  56  57
ENDBRANCH  55  56
ENDBRANCH  54  55
ENDBRANCH  15  54
ENDBRANCH  11  15
ENDBRANCH  10  13
ENDBRANCH   6  10
ENDBRANCH   5   7
ENDBRANCH   1   5
BRANCH   2  66
ATOM     66  CA  SER A   7      21.295   5.904 -44.820  0.00  0.00    +0.178 C 
BRANCH  66  67
ATOM     67  C   SER A   7      20.202   4.838 -44.813  0.00  0.00    +0.243 C 
ATOM     68  O   SER A   7      20.259   3.894 -44.013  0.00  0.00    -0.273 OA
ATOM     69  N   GLU A   8      19.209   4.990 -45.690  0.00  0.00    -0.297 N 
ATOM     70  H   GLU A   8      19.217   5.808 -46.332  0.00  0.00    +0.150 HD
BRANCH  69  71
ATOM     71  CA  GLU A   8      18.104   4.026 -45.767  0.00  0.00    +0.149 C 
BRANCH  71  72
ATOM     72  C   GLU A   8      18.361   2.814 -46.681  0.00  0.00    +0.241 C 
ATOM     73  N   ARG A   9      17.918   1.644 -46.220  0.00  0.00    -0.297 N 
ATOM     74  H   ARG A   9      17.432   1.623 -45.301  0.00  0.00    +0.150 HD
ATOM     75  O   GLU A   8      18.937   2.941 -47.774  0.00  0.00    -0.273 OA
BRANCH  73  76
ATOM     76  CA  ARG A   9      18.087   0.386 -46.954  0.00  0.00    +0.149 C 
BRANCH  76  77
ATOM     77  C   ARG A   9      17.473   0.416 -48.352  0.00  0.00    +0.241 C 
ATOM     78  O   ARG A   9      16.454   1.081 -48.576  0.00  0.00    -0.273 OA
ATOM     79  N   GLU A  10      18.101  -0.310 -49.283  0.00  0.00    -0.297 N 
ATOM     80  H   GLU A  10      18.920  -0.886 -49.003  0.00  0.00    +0.150 HD
BRANCH  79  81
ATOM     81  CA  GLU A  10      17.673  -0.321 -50.684  0.00  0.00    +0.149 C 
BRANCH  81  82
ATOM     82  C   GLU A  10      17.159  -1.692 -51.138  0.00  0.00    +0.241 C 
ATOM     83  N   THR A  11      18.051  -2.673 -51.234  0.00  0.00    -0.295 N 
ATOM     84  H   THR A  11      19.046  -2.491 -50.993  0.00  0.00    +0.150 HD
ATOM     85  O   GLU A  10      15.970  -1.860 -51.389  0.00  0.00    -0.273 OA
BRANCH  83  86
ATOM     86  CA  THR A  11      17.644  -4.006 -51.676  0.00  0.00    +0.176 C 
BRANCH  86  87
ATOM     87  C   THR A  11      16.668  -4.634 -50.663  0.00  0.00    +0.243 C 
ATOM     88  O   THR A  11      16.856  -4.510 -49.442  0.00  0.00    -0.273 OA
ATOM     89  N   THR A  12      15.597  -5.249 -51.166  0.00  0.00    -0.296 N 
ATOM     90  H   THR A  12      15.421  -5.212 -52.190  0.00  0.00    +0.150 HD
BRANCH  89  91
ATOM     91  CA  THR A  12      14.665  -5.975 -50.304  0.00  0.00    +0.164 C 
BRANCH  91  92
ATOM     92  CB  THR A  12      13.278  -5.304 -50.243  0.00  0.00    +0.136 C 
ATOM     93  CG2 THR A  12      13.383  -3.897 -49.641  0.00  0.00    +0.034 C 
BRANCH  92  94
ATOM     94  OG1 THR A  12      12.727  -5.223 -51.564  0.00  0.00    -0.382 OA
ATOM     95  HG1 THR A  12      12.637  -6.135 -51.939  0.00  0.00    +0.210 HD
ENDBRANCH  92  94
ENDBRANCH  91  92
BRANCH  91  96
ATOM     96  C   THR A  12      14.505  -7.410 -50.777  0.00  0.00    +0.229 C 
ATOM     97  O   THR A  12      14.674  -7.704 -51.965  0.00  0.00    -0.286 OA
ENDBRANCH  91  96
ENDBRANCH  89  91
ENDBRANCH  86  87
BRANCH  86  98
ATOM     98  CB  THR A  11      18.872  -4.890 -51.895  0.00  0.00    +0.137 C 
ATOM     99  CG2 THR A  11      18.476  -6.215 -52.515  0.00  0.00    +0.034 C 
BRANCH  98 100
ATOM    100  OG1 THR A  11      19.789  -4.215 -52.777  0.00  0.00    -0.382 OA
ATOM    101  HG1 THR A  11      20.586  -4.784 -52.921  0.00  0.00    +0.210 HD
ENDBRANCH  98 100
ENDBRANCH  86  98
ENDBRANCH  83  86
ENDBRANCH  81  82
BRANCH  81 102
ATOM    102  CB  GLU A  10      18.815   0.170 -51.589  0.00  0.00    +0.041 C 
BRANCH 102 103
ATOM    103  CG  GLU A  10      18.622  -0.084 -53.082  0.00  0.00    +0.116 C 
BRANCH 103 104
ATOM    104  CD  GLU A  10      17.685   0.906 -53.757  0.00  0.00    +0.365 C 
ATOM    105  OE2 GLU A  10      16.873   1.561 -53.067  0.00  0.00    -0.246 OA
ATOM    106  OE1 GLU A  10      17.759   1.027 -54.995  0.00  0.00    -0.246 OA
ENDBRANCH 103 104
ENDBRANCH 102 103
ENDBRANCH  81 102
ENDBRANCH  79  81
ENDBRANCH  76  77
BRANCH  76 107
ATOM    107  CB  ARG A   9      17.506  -0.783 -46.153  0.00  0.00    +0.033 C 
BRANCH 107 108
ATOM    108  CG  ARG A   9      15.991  -0.740 -45.979  0.00  0.00    +0.045 C 
BRANCH 108 109
ATOM    109  CD  ARG A   9      15.315  -1.717 -46.937  0.00  0.00    +0.174 C 
BRANCH 109 110
ATOM    110  NE  ARG A   9      13.879  -1.867 -46.675  0.00  0.00    -0.265 N 
ATOM    111  CZ  ARG A   9      13.338  -2.893 -46.016  0.00  0.00    +0.342 C 
ATOM    112  NH2 ARG A   9      14.110  -3.869 -45.537  0.00  0.00    -0.292 N 
ATOM    113 HH21 ARG A   9      13.682  -4.666 -45.024  0.00  0.00    +0.255 HD
ATOM    114 HH22 ARG A   9      15.140  -3.833 -45.676  0.00  0.00    +0.255 HD
ATOM    115  NH1 ARG A   9      12.023  -2.945 -45.834  0.00  0.00    -0.292 N 
ATOM    116 HH11 ARG A   9      11.600  -3.744 -45.320  0.00  0.00    +0.255 HD
ATOM    117 HH12 ARG A   9      11.416  -2.186 -46.205  0.00  0.00    +0.255 HD
ATOM    118  HE  ARG A   9      13.241  -1.125 -47.026  0.00  0.00    +0.259 HD
ENDBRANCH 109 110
ENDBRANCH 108 109
ENDBRANCH 107 108
ENDBRANCH  76 107
ENDBRANCH  73  76
ENDBRANCH  71  72
BRANCH  71 119
ATOM    119  CB  GLU A   8      16.792   4.722 -46.153  0.00  0.00    +0.041 C 
BRANCH 119 120
ATOM    120  CG  GLU A   8      16.232   5.623 -45.045  0.00  0.00    +0.116 C 
BRANCH 120 121
ATOM    121  CD  GLU A   8      16.165   4.923 -43.687  0.00  0.00    +0.365 C 
ATOM    122  OE2 GLU A   8      16.455   5.578 -42.660  0.00  0.00    -0.246 OA
ATOM    123  OE1 GLU A   8      15.823   3.720 -43.643  0.00  0.00    -0.246 OA
ENDBRANCH 120 121
ENDBRANCH 119 120
ENDBRANCH  71 119
ENDBRANCH  69  71
ENDBRANCH  66  67
BRANCH  66 124
ATOM    124  CB  SER A   7      21.148   6.772 -43.574  0.00  0.00    +0.166 C 
BRANCH 124 125
ATOM    125  OG  SER A   7      19.926   7.490 -43.611  0.00  0.00    -0.380 OA
ATOM    126  H   SER A   7      19.910   8.071 -44.412  0.00  0.00    +0.211 HD
ENDBRANCH 124 125
ENDBRANCH  66 124
ENDBRANCH   2  66
TORSDOF 50
REMARK  Name = ../refined-set-2016/4idn/4idn_pocket.pdb
REMARK  261 active torsions:
REMARK  status: ('A' for Active; 'I' for Inactive)
REMARK    1  A    between atoms: _1  and  _3
REMARK    2  A    between atoms: _3  and  _4
REMARK    3  A    between atoms: _3  and  _6
REMARK    4  A    between atoms: _9  and  _11
REMARK    5  A    between atoms: _11  and  _12
REMARK    6  A    between atoms: _15  and  _17
REMARK    7  A    between atoms: _17  and  _18
REMARK    8  A    between atoms: _20  and  _22
REMARK    9  A    between atoms: _22  and  _23
REMARK   10  A    between atoms: _26  and  _28
REMARK   11  A    between atoms: _28  and  _29
REMARK   12  A    between atoms: _28  and  _31
REMARK   13  A    between atoms: _31  and  _32
REMARK   14  A    between atoms: _38  and  _40
REMARK   15  A    between atoms: _40  and  _41
REMARK   16  A    between atoms: _40  and  _43
REMARK   17  A    between atoms: _43  and  _44
REMARK   18  A    between atoms: _44  and  _45
REMARK   19  A    between atoms: _45  and  _46
REMARK   20  A    between atoms: _55  and  _57
REMARK   21  A    between atoms: _57  and  _58
REMARK   22  A    between atoms: _57  and  _60
REMARK   23  A    between atoms: _60  and  _61
REMARK   24  A    between atoms: _61  and  _62
REMARK   25  A    between atoms: _62  and  _63
REMARK   26  A    between atoms: _63  and  _64
REMARK   27  A    between atoms: _68  and  _70
REMARK   28  A    between atoms: _70  and  _71
REMARK   29  A    between atoms: _73  and  _75
REMARK   30  A    between atoms: _75  and  _76
REMARK   31  A    between atoms: _75  and  _78
REMARK   32  A    between atoms: _78  and  _79
REMARK   33  A    between atoms: _79  and  _80
REMARK   34  A    between atoms: _80  and  _81
REMARK   35  A    between atoms: _81  and  _82
REMARK   36  A    between atoms: _86  and  _88
REMARK   37  A    between atoms: _88  and  _89
REMARK   38  A    between atoms: _88  and  _91
REMARK   39  A    between atoms: _91  and  _92
REMARK   40  A    between atoms: _94  and  _96
REMARK   41  A    between atoms: _96  and  _97
REMARK   42  A    between atoms: _96  and  _99
REMARK   43  A    between atoms: _99  and  _100
REMARK   44  A    between atoms: _106  and  _108
REMARK   45  A    between atoms: _108  and  _109
REMARK   46  A    between atoms: _108  and  _111
REMARK   47  A    between atoms: _111  and  _112
REMARK   48  A    between atoms: _115  and  _117
REMARK   49  A    between atoms: _117  and  _118
REMARK   50  A    between atoms: _117  and  _120
REMARK   51  A    between atoms: _120  and  _121
REMARK   52  A    between atoms: _121  and  _122
REMARK   53  A    between atoms: _124  and  _126
REMARK   54  A    between atoms: _126  and  _127
REMARK   55  A    between atoms: _126  and  _129
REMARK   56  A    between atoms: _129  and  _130
REMARK   57  A    between atoms: _133  and  _135
REMARK   58  A    between atoms: _135  and  _136
REMARK   59  A    between atoms: _135  and  _138
REMARK   60  A    between atoms: _138  and  _139
REMARK   61  A    between atoms: _145  and  _147
REMARK   62  A    between atoms: _147  and  _148
REMARK   63  A    between atoms: _147  and  _150
REMARK   64  A    between atoms: _150  and  _151
REMARK   65  A    between atoms: _154  and  _156
REMARK   66  A    between atoms: _156  and  _157
REMARK   67  A    between atoms: _156  and  _159
REMARK   68  A    between atoms: _159  and  _160
REMARK   69  A    between atoms: _166  and  _168
REMARK   70  A    between atoms: _168  and  _169
REMARK   71  A    between atoms: _168  and  _171
REMARK   72  A    between atoms: _171  and  _172
REMARK   73  A    between atoms: _174  and  _176
REMARK   74  A    between atoms: _176  and  _177
REMARK   75  A    between atoms: _176  and  _179
REMARK   76  A    between atoms: _179  and  _180
REMARK   77  A    between atoms: _190  and  _192
REMARK   78  A    between atoms: _192  and  _193
REMARK   79  A    between atoms: _192  and  _195
REMARK   80  A    between atoms: _195  and  _196
REMARK   81  A    between atoms: _196  and  _197
REMARK   82  A    between atoms: _197  and  _198
REMARK   83  A    between atoms: _207  and  _209
REMARK   84  A    between atoms: _209  and  _210
REMARK   85  A    between atoms: _212  and  _214
REMARK   86  A    between atoms: _214  and  _215
REMARK   87  A    between atoms: _217  and  _219
REMARK   88  A    between atoms: _219  and  _220
REMARK   89  A    between atoms: _219  and  _222
REMARK   90  A    between atoms: _222  and  _223
REMARK   91  A    between atoms: _225  and  _227
REMARK   92  A    between atoms: _227  and  _228
REMARK   93  A    between atoms: _227  and  _230
REMARK   94  A    between atoms: _230  and  _231
REMARK   95  A    between atoms: _231  and  _232
REMARK   96  A    between atoms: _235  and  _237
REMARK   97  A    between atoms: _237  and  _238
REMARK   98  A    between atoms: _237  and  _240
REMARK   99  A    between atoms: _240  and  _241
REMARK  100  A    between atoms: _241  and  _242
REMARK  101  A    between atoms: _242  and  _243
REMARK  102  A    between atoms: _252  and  _254
REMARK  103  A    between atoms: _254  and  _255
REMARK  104  A    between atoms: _254  and  _257
REMARK  105  A    between atoms: _257  and  _258
REMARK  106  A    between atoms: _258  and  _259
REMARK  107  A    between atoms: _262  and  _264
REMARK  108  A    between atoms: _264  and  _265
REMARK  109  A    between atoms: _264  and  _267
REMARK  110  A    between atoms: _267  and  _268
REMARK  111  A    between atoms: _271  and  _273
REMARK  112  A    between atoms: _273  and  _274
REMARK  113  A    between atoms: _273  and  _276
REMARK  114  A    between atoms: _276  and  _277
REMARK  115  A    between atoms: _280  and  _282
REMARK  116  A    between atoms: _282  and  _283
REMARK  117  A    between atoms: _282  and  _285
REMARK  118  A    between atoms: _285  and  _286
REMARK  119  A    between atoms: _286  and  _287
REMARK  120  A    between atoms: _292  and  _294
REMARK  121  A    between atoms: _294  and  _295
REMARK  122  A    between atoms: _294  and  _297
REMARK  123  A    between atoms: _297  and  _298
REMARK  124  A    between atoms: _301  and  _303
REMARK  125  A    between atoms: _303  and  _304
REMARK  126  A    between atoms: _303  and  _306
REMARK  127  A    between atoms: _306  and  _307
REMARK  128  A    between atoms: _310  and  _312
REMARK  129  A    between atoms: _312  and  _313
REMARK  130  A    between atoms: _312  and  _315
REMARK  131  A    between atoms: _315  and  _316
REMARK  132  A    between atoms: _316  and  _317
REMARK  133  A    between atoms: _322  and  _324
REMARK  134  A    between atoms: _324  and  _325
REMARK  135  A    between atoms: _327  and  _329
REMARK  136  A    between atoms: _329  and  _330
REMARK  137  A    between atoms: _329  and  _332
REMARK  138  A    between atoms: _332  and  _333
REMARK  139  A    between atoms: _336  and  _338
REMARK  140  A    between atoms: _338  and  _339
REMARK  141  A    between atoms: _338  and  _341
REMARK  142  A    between atoms: _341  and  _342
REMARK  143  A    between atoms: _345  and  _347
REMARK  144  A    between atoms: _347  and  _348
REMARK  145  A    between atoms: _347  and  _350
REMARK  146  A    between atoms: _350  and  _351
REMARK  147  A    between atoms: _356  and  _358
REMARK  148  A    between atoms: _358  and  _359
REMARK  149  A    between atoms: _358  and  _361
REMARK  150  A    between atoms: _361  and  _362
REMARK  151  A    between atoms: _365  and  _367
REMARK  152  A    between atoms: _367  and  _368
REMARK  153  A    between atoms: _367  and  _370
REMARK  154  A    between atoms: _370  and  _371
REMARK  155  A    between atoms: _373  and  _375
REMARK  156  A    between atoms: _375  and  _376
REMARK  157  A    between atoms: _375  and  _378
REMARK  158  A    between atoms: _378  and  _379
REMARK  159  A    between atoms: _379  and  _380
REMARK  160  A    between atoms: _385  and  _387
REMARK  161  A    between atoms: _387  and  _388
REMARK  162  A    between atoms: _387  and  _390
REMARK  163  A    between atoms: _390  and  _391
REMARK  164  A    between atoms: _394  and  _396
REMARK  165  A    between atoms: _396  and  _397
REMARK  166  A    between atoms: _396  and  _399
REMARK  167  A    between atoms: _402  and  _404
REMARK  168  A    between atoms: _404  and  _405
REMARK  169  A    between atoms: _404  and  _407
REMARK  170  A    between atoms: _407  and  _408
REMARK  171  A    between atoms: _408  and  _409
REMARK  172  A    between atoms: _409  and  _410
REMARK  173  A    between atoms: _419  and  _421
REMARK  174  A    between atoms: _421  and  _422
REMARK  175  A    between atoms: _421  and  _424
REMARK  176  A    between atoms: _424  and  _425
REMARK  177  A    between atoms: _428  and  _430
REMARK  178  A    between atoms: _430  and  _431
REMARK  179  A    between atoms: _430  and  _433
REMARK  180  A    between atoms: _433  and  _434
REMARK  181  A    between atoms: _444  and  _446
REMARK  182  A    between atoms: _446  and  _447
REMARK  183  A    between atoms: _446  and  _449
REMARK  184  A    between atoms: _449  and  _450
REMARK  185  A    between atoms: _454  and  _455
REMARK  186  A    between atoms: _460  and  _462
REMARK  187  A    between atoms: _462  and  _463
REMARK  188  A    between atoms: _462  and  _465
REMARK  189  A    between atoms: _465  and  _466
REMARK  190  A    between atoms: _472  and  _473
REMARK  191  A    between atoms: _478  and  _480
REMARK  192  A    between atoms: _480  and  _481
REMARK  193  A    between atoms: _483  and  _485
REMARK  194  A    between atoms: _485  and  _486
REMARK  195  A    between atoms: _485  and  _488
REMARK  196  A    between atoms: _488  and  _489
REMARK  197  A    between atoms: _492  and  _494
REMARK  198  A    between atoms: _494  and  _495
REMARK  199  A    between atoms: _494  and  _497
REMARK  200  A    between atoms: _497  and  _498
REMARK  201  A    between atoms: _498  and  _499
REMARK  202  A    between atoms: _499  and  _500
REMARK  203  A    between atoms: _500  and  _501
REMARK  204  A    between atoms: _505  and  _507
REMARK  205  A    between atoms: _507  and  _508
REMARK  206  A    between atoms: _507  and  _510
REMARK  207  A    between atoms: _513  and  _515
REMARK  208  A    between atoms: _515  and  _516
REMARK  209  A    between atoms: _519  and  _521
REMARK  210  A    between atoms: _521  and  _522
REMARK  211  A    between atoms: _521  and  _524
REMARK  212  A    between atoms: _524  and  _525
REMARK  213  A    between atoms: _528  and  _530
REMARK  214  A    between atoms: _530  and  _531
REMARK  215  A    between atoms: _530  and  _533
REMARK  216  A    between atoms: _533  and  _534
REMARK  217  A    between atoms: _540  and  _541
REMARK  218  A    between atoms: _546  and  _548
REMARK  219  A    between atoms: _548  and  _549
REMARK  220  A    between atoms: _548  and  _551
REMARK  221  A    between atoms: _551  and  _552
REMARK  222  A    between atoms: _558  and  _560
REMARK  223  A    between atoms: _560  and  _561
REMARK  224  A    between atoms: _560  and  _563
REMARK  225  A    between atoms: _563  and  _564
REMARK  226  A    between atoms: _567  and  _569
REMARK  227  A    between atoms: _569  and  _570
REMARK  228  A    between atoms: _572  and  _574
REMARK  229  A    between atoms: _574  and  _575
REMARK  230  A    between atoms: _574  and  _577
REMARK  231  A    between atoms: _577  and  _578
REMARK  232  A    between atoms: _581  and  _583
REMARK  233  A    between atoms: _583  and  _584
REMARK  234  A    between atoms: _583  and  _586
REMARK  235  A    between atoms: _586  and  _587
REMARK  236  A    between atoms: _593  and  _595
REMARK  237  A    between atoms: _595  and  _596
REMARK  238  A    between atoms: _595  and  _598
REMARK  239  A    between atoms: _598  and  _599
REMARK  240  A    between atoms: _599  and  _600
REMARK  241  A    between atoms: _605  and  _607
REMARK  242  A    between atoms: _607  and  _608
REMARK  243  A    between atoms: _607  and  _610
REMARK  244  A    between atoms: _610  and  _611
REMARK  245  A    between atoms: _614  and  _616
REMARK  246  A    between atoms: _616  and  _617
REMARK  247  A    between atoms: _616  and  _619
REMARK  248  A    between atoms: _619  and  _620
REMARK  249  A    between atoms: _622  and  _624
REMARK  250  A    between atoms: _624  and  _625
REMARK  251  A    between atoms: _624  and  _627
REMARK  252  A    between atoms: _627  and  _628
REMARK  253  A    between atoms: _634  and  _636
REMARK  254  A    between atoms: _636  and  _637
REMARK  255  A    between atoms: _636  and  _639
REMARK  256  A    between atoms: _639  and  _640
REMARK  257  A    between atoms: _645  and  _646
REMARK  258  A    between atoms: _648  and  _650
REMARK  259  A    between atoms: _650  and  _651
REMARK  260  A    between atoms: _650  and  _653
REMARK  261  A    between atoms: _653  and  _654
REMARK                            x       y       z     vdW  Elec       q    Type
REMARK                         _______ _______ _______ _____ _____    ______ ____
ROOT
ATOM      1  CB  GLN A   1      17.304  -9.136 -56.669  0.00  0.00    +0.035 C 
ENDROOT
BRANCH   1   2
ATOM      2  CA  GLN A   1      16.799 -10.531 -56.327  0.00  0.00    +0.134 C 
BRANCH   2   3
ATOM      3  N   GLN A   1      16.825 -10.758 -54.881  0.00  0.00    -0.239 NA
ATOM      4  H   GLN A   1      17.664 -10.462 -54.342  0.00  0.00    +0.142 HD
ENDBRANCH   2   3
BRANCH   2   5
ATOM      5  C   GLN A   1      17.774 -11.475 -57.009  0.00  0.00    +0.224 C 
ATOM      6  O   GLN A   1      18.864 -11.737 -56.489  0.00  0.00    -0.287 OA
ENDBRANCH   2   5
ENDBRANCH   1   2
BRANCH   1   7
ATOM      7  CG  GLN A   1      16.477  -7.976 -56.214  0.00  0.00    +0.087 C 
BRANCH   7   8
ATOM      8  CD  GLN A   1      17.124  -6.672 -56.627  0.00  0.00    +0.219 C 
ATOM      9  NE2 GLN A   1      18.380  -6.471 -56.216  0.00  0.00    -0.329 N 
ATOM     10 HE21 GLN A   1      18.858  -7.189 -55.636  0.00  0.00    +0.145 HD
ATOM     11 HE22 GLN A   1      18.879  -5.596 -56.477  0.00  0.00    +0.145 HD
ATOM     12  OE1 GLN A   1      16.511  -5.858 -57.314  0.00  0.00    -0.275 OA
ENDBRANCH   7   8
ENDBRANCH   1   7
TORSDOF 5
REMARK  Name = ../refined-set-2016/4idn/4idn_pocket.pdb
REMARK  261 active torsions:
REMARK  status: ('A' for Active; 'I' for Inactive)
REMARK    1  A    between atoms: _1  and  _3
REMARK    2  A    between atoms: _3  and  _4
REMARK    3  A    between atoms: _3  and  _6
REMARK    4  A    between atoms: _9  and  _11
REMARK    5  A    between atoms: _11  and  _12
REMARK    6  A    between atoms: _15  and  _17
REMARK    7  A    between atoms: _17  and  _18
REMARK    8  A    between atoms: _20  and  _22
REMARK    9  A    between atoms: _22  and  _23
REMARK   10  A    between atoms: _26  and  _28
REMARK   11  A    between atoms: _28  and  _29
REMARK   12  A    between atoms: _28  and  _31
REMARK   13  A    between atoms: _31  and  _32
REMARK   14  A    between atoms: _38  and  _40
REMARK   15  A    between atoms: _40  and  _41
REMARK   16  A    between atoms: _40  and  _43
REMARK   17  A    between atoms: _43  and  _44
REMARK   18  A    between atoms: _44  and  _45
REMARK   19  A    between atoms: _45  and  _46
REMARK   20  A    between atoms: _55  and  _57
REMARK   21  A    between atoms: _57  and  _58
REMARK   22  A    between atoms: _57  and  _60
REMARK   23  A    between atoms: _60  and  _61
REMARK   24  A    between atoms: _61  and  _62
REMARK   25  A    between atoms: _62  and  _63
REMARK   26  A    between atoms: _63  and  _64
REMARK   27  A    between atoms: _68  and  _70
REMARK   28  A    between atoms: _70  and  _71
REMARK   29  A    between atoms: _73  and  _75
REMARK   30  A    between atoms: _75  and  _76
REMARK   31  A    between atoms: _75  and  _78
REMARK   32  A    between atoms: _78  and  _79
REMARK   33  A    between atoms: _79  and  _80
REMARK   34  A    between atoms: _80  and  _81
REMARK   35  A    between atoms: _81  and  _82
REMARK   36  A    between atoms: _86  and  _88
REMARK   37  A    between atoms: _88  and  _89
REMARK   38  A    between atoms: _88  and  _91
REMARK   39  A    between atoms: _91  and  _92
REMARK   40  A    between atoms: _94  and  _96
REMARK   41  A    between atoms: _96  and  _97
REMARK   42  A    between atoms: _96  and  _99
REMARK   43  A    between atoms: _99  and  _100
REMARK   44  A    between atoms: _106  and  _108
REMARK   45  A    between atoms: _108  and  _109
REMARK   46  A    between atoms: _108  and  _111
REMARK   47  A    between atoms: _111  and  _112
REMARK   48  A    between atoms: _115  and  _117
REMARK   49  A    between atoms: _117  and  _118
REMARK   50  A    between atoms: _117  and  _120
REMARK   51  A    between atoms: _120  and  _121
REMARK   52  A    between atoms: _121  and  _122
REMARK   53  A    between atoms: _124  and  _126
REMARK   54  A    between atoms: _126  and  _127
REMARK   55  A    between atoms: _126  and  _129
REMARK   56  A    between atoms: _129  and  _130
REMARK   57  A    between atoms: _133  and  _135
REMARK   58  A    between atoms: _135  and  _136
REMARK   59  A    between atoms: _135  and  _138
REMARK   60  A    between atoms: _138  and  _139
REMARK   61  A    between atoms: _145  and  _147
REMARK   62  A    between atoms: _147  and  _148
REMARK   63  A    between atoms: _147  and  _150
REMARK   64  A    between atoms: _150  and  _151
REMARK   65  A    between atoms: _154  and  _156
REMARK   66  A    between atoms: _156  and  _157
REMARK   67  A    between atoms: _156  and  _159
REMARK   68  A    between atoms: _159  and  _160
REMARK   69  A    between atoms: _166  and  _168
REMARK   70  A    between atoms: _168  and  _169
REMARK   71  A    between atoms: _168  and  _171
REMARK   72  A    between atoms: _171  and  _172
REMARK   73  A    between atoms: _174  and  _176
REMARK   74  A    between atoms: _176  and  _177
REMARK   75  A    between atoms: _176  and  _179
REMARK   76  A    between atoms: _179  and  _180
REMARK   77  A    between atoms: _190  and  _192
REMARK   78  A    between atoms: _192  and  _193
REMARK   79  A    between atoms: _192  and  _195
REMARK   80  A    between atoms: _195  and  _196
REMARK   81  A    between atoms: _196  and  _197
REMARK   82  A    between atoms: _197  and  _198
REMARK   83  A    between atoms: _207  and  _209
REMARK   84  A    between atoms: _209  and  _210
REMARK   85  A    between atoms: _212  and  _214
REMARK   86  A    between atoms: _214  and  _215
REMARK   87  A    between atoms: _217  and  _219
REMARK   88  A    between atoms: _219  and  _220
REMARK   89  A    between atoms: _219  and  _222
REMARK   90  A    between atoms: _222  and  _223
REMARK   91  A    between atoms: _225  and  _227
REMARK   92  A    between atoms: _227  and  _228
REMARK   93  A    between atoms: _227  and  _230
REMARK   94  A    between atoms: _230  and  _231
REMARK   95  A    between atoms: _231  and  _232
REMARK   96  A    between atoms: _235  and  _237
REMARK   97  A    between atoms: _237  and  _238
REMARK   98  A    between atoms: _237  and  _240
REMARK   99  A    between atoms: _240  and  _241
REMARK  100  A    between atoms: _241  and  _242
REMARK  101  A    between atoms: _242  and  _243
REMARK  102  A    between atoms: _252  and  _254
REMARK  103  A    between atoms: _254  and  _255
REMARK  104  A    between atoms: _254  and  _257
REMARK  105  A    between atoms: _257  and  _258
REMARK  106  A    between atoms: _258  and  _259
REMARK  107  A    between atoms: _262  and  _264
REMARK  108  A    between atoms: _264  and  _265
REMARK  109  A    between atoms: _264  and  _267
REMARK  110  A    between atoms: _267  and  _268
REMARK  111  A    between atoms: _271  and  _273
REMARK  112  A    between atoms: _273  and  _274
REMARK  113  A    between atoms: _273  and  _276
REMARK  114  A    between atoms: _276  and  _277
REMARK  115  A    between atoms: _280  and  _282
REMARK  116  A    between atoms: _282  and  _283
REMARK  117  A    between atoms: _282  and  _285
REMARK  118  A    between atoms: _285  and  _286
REMARK  119  A    between atoms: _286  and  _287
REMARK  120  A    between atoms: _292  and  _294
REMARK  121  A    between atoms: _294  and  _295
REMARK  122  A    between atoms: _294  and  _297
REMARK  123  A    between atoms: _297  and  _298
REMARK  124  A    between atoms: _301  and  _303
REMARK  125  A    between atoms: _303  and  _304
REMARK  126  A    between atoms: _303  and  _306
REMARK  127  A    between atoms: _306  and  _307
REMARK  128  A    between atoms: _310  and  _312
REMARK  129  A    between atoms: _312  and  _313
REMARK  130  A    between atoms: _312  and  _315
REMARK  131  A    between atoms: _315  and  _316
REMARK  132  A    between atoms: _316  and  _317
REMARK  133  A    between atoms: _322  and  _324
REMARK  134  A    between atoms: _324  and  _325
REMARK  135  A    between atoms: _327  and  _329
REMARK  136  A    between atoms: _329  and  _330
REMARK  137  A    between atoms: _329  and  _332
REMARK  138  A    between atoms: _332  and  _333
REMARK  139  A    between atoms: _336  and  _338
REMARK  140  A    between atoms: _338  and  _339
REMARK  141  A    between atoms: _338  and  _341
REMARK  142  A    between atoms: _341  and  _342
REMARK  143  A    between atoms: _345  and  _347
REMARK  144  A    between atoms: _347  and  _348
REMARK  145  A    between atoms: _347  and  _350
REMARK  146  A    between atoms: _350  and  _351
REMARK  147  A    between atoms: _356  and  _358
REMARK  148  A    between atoms: _358  and  _359
REMARK  149  A    between atoms: _358  and  _361
REMARK  150  A    between atoms: _361  and  _362
REMARK  151  A    between atoms: _365  and  _367
REMARK  152  A    between atoms: _367  and  _368
REMARK  153  A    between atoms: _367  and  _370
REMARK  154  A    between atoms: _370  and  _371
REMARK  155  A    between atoms: _373  and  _375
REMARK  156  A    between atoms: _375  and  _376
REMARK  157  A    between atoms: _375  and  _378
REMARK  158  A    between atoms: _378  and  _379
REMARK  159  A    between atoms: _379  and  _380
REMARK  160  A    between atoms: _385  and  _387
REMARK  161  A    between atoms: _387  and  _388
REMARK  162  A    between atoms: _387  and  _390
REMARK  163  A    between atoms: _390  and  _391
REMARK  164  A    between atoms: _394  and  _396
REMARK  165  A    between atoms: _396  and  _397
REMARK  166  A    between atoms: _396  and  _399
REMARK  167  A    between atoms: _402  and  _404
REMARK  168  A    between atoms: _404  and  _405
REMARK  169  A    between atoms: _404  and  _407
REMARK  170  A    between atoms: _407  and  _408
REMARK  171  A    between atoms: _408  and  _409
REMARK  172  A    between atoms: _409  and  _410
REMARK  173  A    between atoms: _419  and  _421
REMARK  174  A    between atoms: _421  and  _422
REMARK  175  A    between atoms: _421  and  _424
REMARK  176  A    between atoms: _424  and  _425
REMARK  177  A    between atoms: _428  and  _430
REMARK  178  A    between atoms: _430  and  _431
REMARK  179  A    between atoms: _430  and  _433
REMARK  180  A    between atoms: _433  and  _434
REMARK  181  A    between atoms: _444  and  _446
REMARK  182  A    between atoms: _446  and  _447
REMARK  183  A    between atoms: _446  and  _449
REMARK  184  A    between atoms: _449  and  _450
REMARK  185  A    between atoms: _454  and  _455
REMARK  186  A    between atoms: _460  and  _462
REMARK  187  A    between atoms: _462  and  _463
REMARK  188  A    between atoms: _462  and  _465
REMARK  189  A    between atoms: _465  and  _466
REMARK  190  A    between atoms: _472  and  _473
REMARK  191  A    between atoms: _478  and  _480
REMARK  192  A    between atoms: _480  and  _481
REMARK  193  A    between atoms: _483  and  _485
REMARK  194  A    between atoms: _485  and  _486
REMARK  195  A    between atoms: _485  and  _488
REMARK  196  A    between atoms: _488  and  _489
REMARK  197  A    between atoms: _492  and  _494
REMARK  198  A    between atoms: _494  and  _495
REMARK  199  A    between atoms: _494  and  _497
REMARK  200  A    between atoms: _497  and  _498
REMARK  201  A    between atoms: _498  and  _499
REMARK  202  A    between atoms: _499  and  _500
REMARK  203  A    between atoms: _500  and  _501
REMARK  204  A    between atoms: _505  and  _507
REMARK  205  A    between atoms: _507  and  _508
REMARK  206  A    between atoms: _507  and  _510
REMARK  207  A    between atoms: _513  and  _515
REMARK  208  A    between atoms: _515  and  _516
REMARK  209  A    between atoms: _519  and  _521
REMARK  210  A    between atoms: _521  and  _522
REMARK  211  A    between atoms: _521  and  _524
REMARK  212  A    between atoms: _524  and  _525
REMARK  213  A    between atoms: _528  and  _530
REMARK  214  A    between atoms: _530  and  _531
REMARK  215  A    between atoms: _530  and  _533
REMARK  216  A    between atoms: _533  and  _534
REMARK  217  A    between atoms: _540  and  _541
REMARK  218  A    between atoms: _546  and  _548
REMARK  219  A    between atoms: _548  and  _549
REMARK  220  A    between atoms: _548  and  _551
REMARK  221  A    between atoms: _551  and  _552
REMARK  222  A    between atoms: _558  and  _560
REMARK  223  A    between atoms: _560  and  _561
REMARK  224  A    between atoms: _560  and  _563
REMARK  225  A    between atoms: _563  and  _564
REMARK  226  A    between atoms: _567  and  _569
REMARK  227  A    between atoms: _569  and  _570
REMARK  228  A    between atoms: _572  and  _574
REMARK  229  A    between atoms: _574  and  _575
REMARK  230  A    between atoms: _574  and  _577
REMARK  231  A    between atoms: _577  and  _578
REMARK  232  A    between atoms: _581  and  _583
REMARK  233  A    between atoms: _583  and  _584
REMARK  234  A    between atoms: _583  and  _586
REMARK  235  A    between atoms: _586  and  _587
REMARK  236  A    between atoms: _593  and  _595
REMARK  237  A    between atoms: _595  and  _596
REMARK  238  A    between atoms: _595  and  _598
REMARK  239  A    between atoms: _598  and  _599
REMARK  240  A    between atoms: _599  and  _600
REMARK  241  A    between atoms: _605  and  _607
REMARK  242  A    between atoms: _607  and  _608
REMARK  243  A    between atoms: _607  and  _610
REMARK  244  A    between atoms: _610  and  _611
REMARK  245  A    between atoms: _614  and  _616
REMARK  246  A    between atoms: _616  and  _617
REMARK  247  A    between atoms: _616  and  _619
REMARK  248  A    between atoms: _619  and  _620
REMARK  249  A    between atoms: _622  and  _624
REMARK  250  A    between atoms: _624  and  _625
REMARK  251  A    between atoms: _624  and  _627
REMARK  252  A    between atoms: _627  and  _628
REMARK  253  A    between atoms: _634  and  _636
REMARK  254  A    between atoms: _636  and  _637
REMARK  255  A    between atoms: _636  and  _639
REMARK  256  A    between atoms: _639  and  _640
REMARK  257  A    between atoms: _645  and  _646
REMARK  258  A    between atoms: _648  and  _650
REMARK  259  A    between atoms: _650  and  _651
REMARK  260  A    between atoms: _650  and  _653
REMARK  261  A    between atoms: _653  and  _654
REMARK                            x       y       z     vdW  Elec       q    Type
REMARK                         _______ _______ _______ _____ _____    ______ ____
ROOT
ATOM      1  CA  GLN A   3      18.218  -7.529 -48.397  0.00  0.00    +0.149 C 
ENDROOT
BRANCH   1   2
ATOM      2  C   GLN A   3      19.221  -7.536 -47.249  0.00  0.00    +0.241 C 
ATOM      3  O   GLN A   3      19.507  -8.595 -46.669  0.00  0.00    -0.273 OA
ATOM      4  N   GLY A   4      19.766  -6.362 -46.931  0.00  0.00    -0.295 N 
ATOM      5  H   GLY A   4      19.504  -5.514 -47.473  0.00  0.00    +0.150 HD
BRANCH   4   6
ATOM      6  CA  GLY A   4      20.723  -6.245 -45.838  0.00  0.00    +0.176 C 
BRANCH   6   7
ATOM      7  C   GLY A   4      20.104  -6.507 -44.470  0.00  0.00    +0.243 C 
ATOM      8  N   THR A   5      20.894  -7.101 -43.578  0.00  0.00    -0.296 N 
ATOM      9  H   THR A   5      21.855  -7.381 -43.862  0.00  0.00    +0.150 HD
ATOM     10  O   GLY A   4      18.936  -6.180 -44.225  0.00  0.00    -0.273 OA
BRANCH   8  11
ATOM     11  CA  THR A   5      20.452  -7.371 -42.215  0.00  0.00    +0.164 C 
BRANCH  11  12
ATOM     12  C   THR A   5      20.474  -6.094 -41.354  0.00  0.00    +0.229 C 
ATOM     13  O   THR A   5      21.185  -5.126 -41.669  0.00  0.00    -0.286 OA
ENDBRANCH  11  12
BRANCH  11  14
ATOM     14  CB  THR A   5      21.338  -8.457 -41.567  0.00  0.00    +0.136 C 
ATOM     15  CG2 THR A   5      21.225  -9.770 -42.336  0.00  0.00    +0.034 C 
BRANCH  14  16
ATOM     16  OG1 THR A   5      22.704  -8.038 -41.610  0.00  0.00    -0.382 OA
ATOM     17  HG1 THR A   5      23.274  -8.733 -41.195  0.00  0.00    +0.210 HD
ENDBRANCH  14  16
ENDBRANCH  11  14
ENDBRANCH   8  11
ENDBRANCH   6   7
ENDBRANCH   4   6
ENDBRANCH   1   2
BRANCH   1  19
ATOM     18  C   THR A   2      19.709  -8.524 -50.056  0.00  0.00    +0.243 C 
ATOM     19  N   GLN A   3      18.586  -8.553 -49.351  0.00  0.00    -0.297 N 
ATOM     20  H   GLN A   3      17.936  -9.353 -49.491  0.00  0.00    +0.150 HD
ATOM     21  O   THR A   2      20.492  -7.568 -50.062  0.00  0.00    -0.273 OA
BRANCH  18  22
ATOM     22  CA  THR A   2      19.958  -9.777 -50.888  0.00  0.00    +0.176 C 
BRANCH  22  24
ATOM     23  C   ASP A   1      20.551 -10.041 -53.231  0.00  0.00    +0.239 C 
ATOM     24  N   THR A   2      20.890  -9.627 -52.008  0.00  0.00    -0.295 N 
ATOM     25  H   THR A   2      21.823  -9.195 -51.849  0.00  0.00    +0.150 HD
ATOM     26  O   ASP A   1      19.412 -10.454 -53.496  0.00  0.00    -0.274 OA
BRANCH  23  27
ATOM     27  CA  ASP A   1      21.646 -10.037 -54.317  0.00  0.00    +0.156 C 
BRANCH  27  28
ATOM     28  N   ASP A   1      21.416 -11.196 -55.180  0.00  0.00    -0.238 NA
ATOM     29  H   ASP A   1      20.608 -11.184 -55.835  0.00  0.00    +0.142 HD
ENDBRANCH  27  28
BRANCH  27  30
ATOM     30  CB  ASP A   1      21.616  -8.760 -55.160  0.00  0.00    +0.140 C 
BRANCH  30  31
ATOM     31  CG  ASP A   1      21.918  -7.495 -54.349  0.00  0.00    +0.367 C 
ATOM     32  OD2 ASP A   1      22.496  -7.596 -53.235  0.00  0.00    -0.246 OA
ATOM     33  OD1 ASP A   1      21.586  -6.382 -54.841  0.00  0.00    -0.246 OA
ENDBRANCH  30  31
ENDBRANCH  27  30
ENDBRANCH  23  27
ENDBRANCH  22  24
BRANCH  22  34
ATOM     34  CB  THR A   2      20.392 -10.915 -49.914  0.00  0.00    +0.137 C 
ATOM     35  CG2 THR A   2      20.575 -12.237 -50.651  0.00  0.00    +0.034 C 
BRANCH  34  36
ATOM     36  OG1 THR A   2      21.612 -10.554 -49.258  0.00  0.00    -0.382 OA
ATOM     37  HG1 THR A   2      22.321 -10.414 -49.935  0.00  0.00    +0.210 HD
ENDBRANCH  34  36
ENDBRANCH  22  34
ENDBRANCH  18  22
ENDBRANCH   1  19
BRANCH   1  38
ATOM     38  CB  GLN A   3      16.816  -7.836 -47.878  0.00  0.00    +0.039 C 
BRANCH  38  39
ATOM     39  CG  GLN A   3      16.401  -7.092 -46.637  0.00  0.00    +0.087 C 
BRANCH  39  40
ATOM     40  CD  GLN A   3      14.951  -7.394 -46.282  0.00  0.00    +0.219 C 
ATOM     41  NE2 GLN A   3      14.656  -7.465 -44.987  0.00  0.00    -0.329 N 
ATOM     42 HE21 GLN A   3      15.398  -7.307 -44.275  0.00  0.00    +0.145 HD
ATOM     43 HE22 GLN A   3      13.684  -7.679 -44.686  0.00  0.00    +0.145 HD
ATOM     44  OE1 GLN A   3      14.109  -7.573 -47.169  0.00  0.00    -0.275 OA
ENDBRANCH  39  40
ENDBRANCH  38  39
ENDBRANCH   1  38
TORSDOF 19
REMARK  Name = ../refined-set-2016/4idn/4idn_pocket.pdb
REMARK  261 active torsions:
REMARK  status: ('A' for Active; 'I' for Inactive)
REMARK    1  A    between atoms: _1  and  _3
REMARK    2  A    between atoms: _3  and  _4
REMARK    3  A    between atoms: _3  and  _6
REMARK    4  A    between atoms: _9  and  _11
REMARK    5  A    between atoms: _11  and  _12
REMARK    6  A    between atoms: _15  and  _17
REMARK    7  A    between atoms: _17  and  _18
REMARK    8  A    between atoms: _20  and  _22
REMARK    9  A    between atoms: _22  and  _23
REMARK   10  A    between atoms: _26  and  _28
REMARK   11  A    between atoms: _28  and  _29
REMARK   12  A    between atoms: _28  and  _31
REMARK   13  A    between atoms: _31  and  _32
REMARK   14  A    between atoms: _38  and  _40
REMARK   15  A    between atoms: _40  and  _41
REMARK   16  A    between atoms: _40  and  _43
REMARK   17  A    between atoms: _43  and  _44
REMARK   18  A    between atoms: _44  and  _45
REMARK   19  A    between atoms: _45  and  _46
REMARK   20  A    between atoms: _55  and  _57
REMARK   21  A    between atoms: _57  and  _58
REMARK   22  A    between atoms: _57  and  _60
REMARK   23  A    between atoms: _60  and  _61
REMARK   24  A    between atoms: _61  and  _62
REMARK   25  A    between atoms: _62  and  _63
REMARK   26  A    between atoms: _63  and  _64
REMARK   27  A    between atoms: _68  and  _70
REMARK   28  A    between atoms: _70  and  _71
REMARK   29  A    between atoms: _73  and  _75
REMARK   30  A    between atoms: _75  and  _76
REMARK   31  A    between atoms: _75  and  _78
REMARK   32  A    between atoms: _78  and  _79
REMARK   33  A    between atoms: _79  and  _80
REMARK   34  A    between atoms: _80  and  _81
REMARK   35  A    between atoms: _81  and  _82
REMARK   36  A    between atoms: _86  and  _88
REMARK   37  A    between atoms: _88  and  _89
REMARK   38  A    between atoms: _88  and  _91
REMARK   39  A    between atoms: _91  and  _92
REMARK   40  A    between atoms: _94  and  _96
REMARK   41  A    between atoms: _96  and  _97
REMARK   42  A    between atoms: _96  and  _99
REMARK   43  A    between atoms: _99  and  _100
REMARK   44  A    between atoms: _106  and  _108
REMARK   45  A    between atoms: _108  and  _109
REMARK   46  A    between atoms: _108  and  _111
REMARK   47  A    between atoms: _111  and  _112
REMARK   48  A    between atoms: _115  and  _117
REMARK   49  A    between atoms: _117  and  _118
REMARK   50  A    between atoms: _117  and  _120
REMARK   51  A    between atoms: _120  and  _121
REMARK   52  A    between atoms: _121  and  _122
REMARK   53  A    between atoms: _124  and  _126
REMARK   54  A    between atoms: _126  and  _127
REMARK   55  A    between atoms: _126  and  _129
REMARK   56  A    between atoms: _129  and  _130
REMARK   57  A    between atoms: _133  and  _135
REMARK   58  A    between atoms: _135  and  _136
REMARK   59  A    between atoms: _135  and  _138
REMARK   60  A    between atoms: _138  and  _139
REMARK   61  A    between atoms: _145  and  _147
REMARK   62  A    between atoms: _147  and  _148
REMARK   63  A    between atoms: _147  and  _150
REMARK   64  A    between atoms: _150  and  _151
REMARK   65  A    between atoms: _154  and  _156
REMARK   66  A    between atoms: _156  and  _157
REMARK   67  A    between atoms: _156  and  _159
REMARK   68  A    between atoms: _159  and  _160
REMARK   69  A    between atoms: _166  and  _168
REMARK   70  A    between atoms: _168  and  _169
REMARK   71  A    between atoms: _168  and  _171
REMARK   72  A    between atoms: _171  and  _172
REMARK   73  A    between atoms: _174  and  _176
REMARK   74  A    between atoms: _176  and  _177
REMARK   75  A    between atoms: _176  and  _179
REMARK   76  A    between atoms: _179  and  _180
REMARK   77  A    between atoms: _190  and  _192
REMARK   78  A    between atoms: _192  and  _193
REMARK   79  A    between atoms: _192  and  _195
REMARK   80  A    between atoms: _195  and  _196
REMARK   81  A    between atoms: _196  and  _197
REMARK   82  A    between atoms: _197  and  _198
REMARK   83  A    between atoms: _207  and  _209
REMARK   84  A    between atoms: _209  and  _210
REMARK   85  A    between atoms: _212  and  _214
REMARK   86  A    between atoms: _214  and  _215
REMARK   87  A    between atoms: _217  and  _219
REMARK   88  A    between atoms: _219  and  _220
REMARK   89  A    between atoms: _219  and  _222
REMARK   90  A    between atoms: _222  and  _223
REMARK   91  A    between atoms: _225  and  _227
REMARK   92  A    between atoms: _227  and  _228
REMARK   93  A    between atoms: _227  and  _230
REMARK   94  A    between atoms: _230  and  _231
REMARK   95  A    between atoms: _231  and  _232
REMARK   96  A    between atoms: _235  and  _237
REMARK   97  A    between atoms: _237  and  _238
REMARK   98  A    between atoms: _237  and  _240
REMARK   99  A    between atoms: _240  and  _241
REMARK  100  A    between atoms: _241  and  _242
REMARK  101  A    between atoms: _242  and  _243
REMARK  102  A    between atoms: _252  and  _254
REMARK  103  A    between atoms: _254  and  _255
REMARK  104  A    between atoms: _254  and  _257
REMARK  105  A    between atoms: _257  and  _258
REMARK  106  A    between atoms: _258  and  _259
REMARK  107  A    between atoms: _262  and  _264
REMARK  108  A    between atoms: _264  and  _265
REMARK  109  A    between atoms: _264  and  _267
REMARK  110  A    between atoms: _267  and  _268
REMARK  111  A    between atoms: _271  and  _273
REMARK  112  A    between atoms: _273  and  _274
REMARK  113  A    between atoms: _273  and  _276
REMARK  114  A    between atoms: _276  and  _277
REMARK  115  A    between atoms: _280  and  _282
REMARK  116  A    between atoms: _282  and  _283
REMARK  117  A    between atoms: _282  and  _285
REMARK  118  A    between atoms: _285  and  _286
REMARK  119  A    between atoms: _286  and  _287
REMARK  120  A    between atoms: _292  and  _294
REMARK  121  A    between atoms: _294  and  _295
REMARK  122  A    between atoms: _294  and  _297
REMARK  123  A    between atoms: _297  and  _298
REMARK  124  A    between atoms: _301  and  _303
REMARK  125  A    between atoms: _303  and  _304
REMARK  126  A    between atoms: _303  and  _306
REMARK  127  A    between atoms: _306  and  _307
REMARK  128  A    between atoms: _310  and  _312
REMARK  129  A    between atoms: _312  and  _313
REMARK  130  A    between atoms: _312  and  _315
REMARK  131  A    between atoms: _315  and  _316
REMARK  132  A    between atoms: _316  and  _317
REMARK  133  A    between atoms: _322  and  _324
REMARK  134  A    between atoms: _324  and  _325
REMARK  135  A    between atoms: _327  and  _329
REMARK  136  A    between atoms: _329  and  _330
REMARK  137  A    between atoms: _329  and  _332
REMARK  138  A    between atoms: _332  and  _333
REMARK  139  A    between atoms: _336  and  _338
REMARK  140  A    between atoms: _338  and  _339
REMARK  141  A    between atoms: _338  and  _341
REMARK  142  A    between atoms: _341  and  _342
REMARK  143  A    between atoms: _345  and  _347
REMARK  144  A    between atoms: _347  and  _348
REMARK  145  A    between atoms: _347  and  _350
REMARK  146  A    between atoms: _350  and  _351
REMARK  147  A    between atoms: _356  and  _358
REMARK  148  A    between atoms: _358  and  _359
REMARK  149  A    between atoms: _358  and  _361
REMARK  150  A    between atoms: _361  and  _362
REMARK  151  A    between atoms: _365  and  _367
REMARK  152  A    between atoms: _367  and  _368
REMARK  153  A    between atoms: _367  and  _370
REMARK  154  A    between atoms: _370  and  _371
REMARK  155  A    between atoms: _373  and  _375
REMARK  156  A    between atoms: _375  and  _376
REMARK  157  A    between atoms: _375  and  _378
REMARK  158  A    between atoms: _378  and  _379
REMARK  159  A    between atoms: _379  and  _380
REMARK  160  A    between atoms: _385  and  _387
REMARK  161  A    between atoms: _387  and  _388
REMARK  162  A    between atoms: _387  and  _390
REMARK  163  A    between atoms: _390  and  _391
REMARK  164  A    between atoms: _394  and  _396
REMARK  165  A    between atoms: _396  and  _397
REMARK  166  A    between atoms: _396  and  _399
REMARK  167  A    between atoms: _402  and  _404
REMARK  168  A    between atoms: _404  and  _405
REMARK  169  A    between atoms: _404  and  _407
REMARK  170  A    between atoms: _407  and  _408
REMARK  171  A    between atoms: _408  and  _409
REMARK  172  A    between atoms: _409  and  _410
REMARK  173  A    between atoms: _419  and  _421
REMARK  174  A    between atoms: _421  and  _422
REMARK  175  A    between atoms: _421  and  _424
REMARK  176  A    between atoms: _424  and  _425
REMARK  177  A    between atoms: _428  and  _430
REMARK  178  A    between atoms: _430  and  _431
REMARK  179  A    between atoms: _430  and  _433
REMARK  180  A    between atoms: _433  and  _434
REMARK  181  A    between atoms: _444  and  _446
REMARK  182  A    between atoms: _446  and  _447
REMARK  183  A    between atoms: _446  and  _449
REMARK  184  A    between atoms: _449  and  _450
REMARK  185  A    between atoms: _454  and  _455
REMARK  186  A    between atoms: _460  and  _462
REMARK  187  A    between atoms: _462  and  _463
REMARK  188  A    between atoms: _462  and  _465
REMARK  189  A    between atoms: _465  and  _466
REMARK  190  A    between atoms: _472  and  _473
REMARK  191  A    between atoms: _478  and  _480
REMARK  192  A    between atoms: _480  and  _481
REMARK  193  A    between atoms: _483  and  _485
REMARK  194  A    between atoms: _485  and  _486
REMARK  195  A    between atoms: _485  and  _488
REMARK  196  A    between atoms: _488  and  _489
REMARK  197  A    between atoms: _492  and  _494
REMARK  198  A    between atoms: _494  and  _495
REMARK  199  A    between atoms: _494  and  _497
REMARK  200  A    between atoms: _497  and  _498
REMARK  201  A    between atoms: _498  and  _499
REMARK  202  A    between atoms: _499  and  _500
REMARK  203  A    between atoms: _500  and  _501
REMARK  204  A    between atoms: _505  and  _507
REMARK  205  A    between atoms: _507  and  _508
REMARK  206  A    between atoms: _507  and  _510
REMARK  207  A    between atoms: _513  and  _515
REMARK  208  A    between atoms: _515  and  _516
REMARK  209  A    between atoms: _519  and  _521
REMARK  210  A    between atoms: _521  and  _522
REMARK  211  A    between atoms: _521  and  _524
REMARK  212  A    between atoms: _524  and  _525
REMARK  213  A    between atoms: _528  and  _530
REMARK  214  A    between atoms: _530  and  _531
REMARK  215  A    between atoms: _530  and  _533
REMARK  216  A    between atoms: _533  and  _534
REMARK  217  A    between atoms: _540  and  _541
REMARK  218  A    between atoms: _546  and  _548
REMARK  219  A    between atoms: _548  and  _549
REMARK  220  A    between atoms: _548  and  _551
REMARK  221  A    between atoms: _551  and  _552
REMARK  222  A    between atoms: _558  and  _560
REMARK  223  A    between atoms: _560  and  _561
REMARK  224  A    between atoms: _560  and  _563
REMARK  225  A    between atoms: _563  and  _564
REMARK  226  A    between atoms: _567  and  _569
REMARK  227  A    between atoms: _569  and  _570
REMARK  228  A    between atoms: _572  and  _574
REMARK  229  A    between atoms: _574  and  _575
REMARK  230  A    between atoms: _574  and  _577
REMARK  231  A    between atoms: _577  and  _578
REMARK  232  A    between atoms: _581  and  _583
REMARK  233  A    between atoms: _583  and  _584
REMARK  234  A    between atoms: _583  and  _586
REMARK  235  A    between atoms: _586  and  _587
REMARK  236  A    between atoms: _593  and  _595
REMARK  237  A    between atoms: _595  and  _596
REMARK  238  A    between atoms: _595  and  _598
REMARK  239  A    between atoms: _598  and  _599
REMARK  240  A    between atoms: _599  and  _600
REMARK  241  A    between atoms: _605  and  _607
REMARK  242  A    between atoms: _607  and  _608
REMARK  243  A    between atoms: _607  and  _610
REMARK  244  A    between atoms: _610  and  _611
REMARK  245  A    between atoms: _614  and  _616
REMARK  246  A    between atoms: _616  and  _617
REMARK  247  A    between atoms: _616  and  _619
REMARK  248  A    between atoms: _619  and  _620
REMARK  249  A    between atoms: _622  and  _624
REMARK  250  A    between atoms: _624  and  _625
REMARK  251  A    between atoms: _624  and  _627
REMARK  252  A    between atoms: _627  and  _628
REMARK  253  A    between atoms: _634  and  _636
REMARK  254  A    between atoms: _636  and  _637
REMARK  255  A    between atoms: _636  and  _639
REMARK  256  A    between atoms: _639  and  _640
REMARK  257  A    between atoms: _645  and  _646
REMARK  258  A    between atoms: _648  and  _650
REMARK  259  A    between atoms: _650  and  _651
REMARK  260  A    between atoms: _650  and  _653
REMARK  261  A    between atoms: _653  and  _654
REMARK                            x       y       z     vdW  Elec       q    Type
REMARK                         _______ _______ _______ _____ _____    ______ ____
ROOT
ATOM      1  CA  ASP A   1      17.762  -2.331 -40.960  0.00  0.00    +0.144 C 
ENDROOT
BRANCH   1   2
ATOM      2  N   ASP A   1      18.474  -3.572 -40.669  0.00  0.00    -0.239 NA
ATOM      3  H   ASP A   1      18.376  -4.382 -41.313  0.00  0.00    +0.142 HD
ENDBRANCH   1   2
BRANCH   1   4
ATOM      4  C   ASP A   1      16.637  -2.144 -39.929  0.00  0.00    +0.225 C 
ATOM      5  O   ASP A   1      16.285  -3.086 -39.208  0.00  0.00    -0.287 OA
ENDBRANCH   1   4
BRANCH   1   6
ATOM      6  CB  ASP A   1      17.185  -2.371 -42.375  0.00  0.00    +0.139 C 
BRANCH   6   7
ATOM      7  CG  ASP A   1      16.098  -3.414 -42.527  0.00  0.00    +0.367 C 
ATOM      8  OD2 ASP A   1      14.910  -3.059 -42.352  0.00  0.00    -0.246 OA
ATOM      9  OD1 ASP A   1      16.430  -4.589 -42.811  0.00  0.00    -0.246 OA
ENDBRANCH   6   7
ENDBRANCH   1   6
TORSDOF 4
REMARK  Name = ../refined-set-2016/4idn/4idn_pocket.pdb
REMARK  261 active torsions:
REMARK  status: ('A' for Active; 'I' for Inactive)
REMARK    1  A    between atoms: _1  and  _3
REMARK    2  A    between atoms: _3  and  _4
REMARK    3  A    between atoms: _3  and  _6
REMARK    4  A    between atoms: _9  and  _11
REMARK    5  A    between atoms: _11  and  _12
REMARK    6  A    between atoms: _15  and  _17
REMARK    7  A    between atoms: _17  and  _18
REMARK    8  A    between atoms: _20  and  _22
REMARK    9  A    between atoms: _22  and  _23
REMARK   10  A    between atoms: _26  and  _28
REMARK   11  A    between atoms: _28  and  _29
REMARK   12  A    between atoms: _28  and  _31
REMARK   13  A    between atoms: _31  and  _32
REMARK   14  A    between atoms: _38  and  _40
REMARK   15  A    between atoms: _40  and  _41
REMARK   16  A    between atoms: _40  and  _43
REMARK   17  A    between atoms: _43  and  _44
REMARK   18  A    between atoms: _44  and  _45
REMARK   19  A    between atoms: _45  and  _46
REMARK   20  A    between atoms: _55  and  _57
REMARK   21  A    between atoms: _57  and  _58
REMARK   22  A    between atoms: _57  and  _60
REMARK   23  A    between atoms: _60  and  _61
REMARK   24  A    between atoms: _61  and  _62
REMARK   25  A    between atoms: _62  and  _63
REMARK   26  A    between atoms: _63  and  _64
REMARK   27  A    between atoms: _68  and  _70
REMARK   28  A    between atoms: _70  and  _71
REMARK   29  A    between atoms: _73  and  _75
REMARK   30  A    between atoms: _75  and  _76
REMARK   31  A    between atoms: _75  and  _78
REMARK   32  A    between atoms: _78  and  _79
REMARK   33  A    between atoms: _79  and  _80
REMARK   34  A    between atoms: _80  and  _81
REMARK   35  A    between atoms: _81  and  _82
REMARK   36  A    between atoms: _86  and  _88
REMARK   37  A    between atoms: _88  and  _89
REMARK   38  A    between atoms: _88  and  _91
REMARK   39  A    between atoms: _91  and  _92
REMARK   40  A    between atoms: _94  and  _96
REMARK   41  A    between atoms: _96  and  _97
REMARK   42  A    between atoms: _96  and  _99
REMARK   43  A    between atoms: _99  and  _100
REMARK   44  A    between atoms: _106  and  _108
REMARK   45  A    between atoms: _108  and  _109
REMARK   46  A    between atoms: _108  and  _111
REMARK   47  A    between atoms: _111  and  _112
REMARK   48  A    between atoms: _115  and  _117
REMARK   49  A    between atoms: _117  and  _118
REMARK   50  A    between atoms: _117  and  _120
REMARK   51  A    between atoms: _120  and  _121
REMARK   52  A    between atoms: _121  and  _122
REMARK   53  A    between atoms: _124  and  _126
REMARK   54  A    between atoms: _126  and  _127
REMARK   55  A    between atoms: _126  and  _129
REMARK   56  A    between atoms: _129  and  _130
REMARK   57  A    between atoms: _133  and  _135
REMARK   58  A    between atoms: _135  and  _136
REMARK   59  A    between atoms: _135  and  _138
REMARK   60  A    between atoms: _138  and  _139
REMARK   61  A    between atoms: _145  and  _147
REMARK   62  A    between atoms: _147  and  _148
REMARK   63  A    between atoms: _147  and  _150
REMARK   64  A    between atoms: _150  and  _151
REMARK   65  A    between atoms: _154  and  _156
REMARK   66  A    between atoms: _156  and  _157
REMARK   67  A    between atoms: _156  and  _159
REMARK   68  A    between atoms: _159  and  _160
REMARK   69  A    between atoms: _166  and  _168
REMARK   70  A    between atoms: _168  and  _169
REMARK   71  A    between atoms: _168  and  _171
REMARK   72  A    between atoms: _171  and  _172
REMARK   73  A    between atoms: _174  and  _176
REMARK   74  A    between atoms: _176  and  _177
REMARK   75  A    between atoms: _176  and  _179
REMARK   76  A    between atoms: _179  and  _180
REMARK   77  A    between atoms: _190  and  _192
REMARK   78  A    between atoms: _192  and  _193
REMARK   79  A    between atoms: _192  and  _195
REMARK   80  A    between atoms: _195  and  _196
REMARK   81  A    between atoms: _196  and  _197
REMARK   82  A    between atoms: _197  and  _198
REMARK   83  A    between atoms: _207  and  _209
REMARK   84  A    between atoms: _209  and  _210
REMARK   85  A    between atoms: _212  and  _214
REMARK   86  A    between atoms: _214  and  _215
REMARK   87  A    between atoms: _217  and  _219
REMARK   88  A    between atoms: _219  and  _220
REMARK   89  A    between atoms: _219  and  _222
REMARK   90  A    between atoms: _222  and  _223
REMARK   91  A    between atoms: _225  and  _227
REMARK   92  A    between atoms: _227  and  _228
REMARK   93  A    between atoms: _227  and  _230
REMARK   94  A    between atoms: _230  and  _231
REMARK   95  A    between atoms: _231  and  _232
REMARK   96  A    between atoms: _235  and  _237
REMARK   97  A    between atoms: _237  and  _238
REMARK   98  A    between atoms: _237  and  _240
REMARK   99  A    between atoms: _240  and  _241
REMARK  100  A    between atoms: _241  and  _242
REMARK  101  A    between atoms: _242  and  _243
REMARK  102  A    between atoms: _252  and  _254
REMARK  103  A    between atoms: _254  and  _255
REMARK  104  A    between atoms: _254  and  _257
REMARK  105  A    between atoms: _257  and  _258
REMARK  106  A    between atoms: _258  and  _259
REMARK  107  A    between atoms: _262  and  _264
REMARK  108  A    between atoms: _264  and  _265
REMARK  109  A    between atoms: _264  and  _267
REMARK  110  A    between atoms: _267  and  _268
REMARK  111  A    between atoms: _271  and  _273
REMARK  112  A    between atoms: _273  and  _274
REMARK  113  A    between atoms: _273  and  _276
REMARK  114  A    between atoms: _276  and  _277
REMARK  115  A    between atoms: _280  and  _282
REMARK  116  A    between atoms: _282  and  _283
REMARK  117  A    between atoms: _282  and  _285
REMARK  118  A    between atoms: _285  and  _286
REMARK  119  A    between atoms: _286  and  _287
REMARK  120  A    between atoms: _292  and  _294
REMARK  121  A    between atoms: _294  and  _295
REMARK  122  A    between atoms: _294  and  _297
REMARK  123  A    between atoms: _297  and  _298
REMARK  124  A    between atoms: _301  and  _303
REMARK  125  A    between atoms: _303  and  _304
REMARK  126  A    between atoms: _303  and  _306
REMARK  127  A    between atoms: _306  and  _307
REMARK  128  A    between atoms: _310  and  _312
REMARK  129  A    between atoms: _312  and  _313
REMARK  130  A    between atoms: _312  and  _315
REMARK  131  A    between atoms: _315  and  _316
REMARK  132  A    between atoms: _316  and  _317
REMARK  133  A    between atoms: _322  and  _324
REMARK  134  A    between atoms: _324  and  _325
REMARK  135  A    between atoms: _327  and  _329
REMARK  136  A    between atoms: _329  and  _330
REMARK  137  A    between atoms: _329  and  _332
REMARK  138  A    between atoms: _332  and  _333
REMARK  139  A    between atoms: _336  and  _338
REMARK  140  A    between atoms: _338  and  _339
REMARK  141  A    between atoms: _338  and  _341
REMARK  142  A    between atoms: _341  and  _342
REMARK  143  A    between atoms: _345  and  _347
REMARK  144  A    between atoms: _347  and  _348
REMARK  145  A    between atoms: _347  and  _350
REMARK  146  A    between atoms: _350  and  _351
REMARK  147  A    between atoms: _356  and  _358
REMARK  148  A    between atoms: _358  and  _359
REMARK  149  A    between atoms: _358  and  _361
REMARK  150  A    between atoms: _361  and  _362
REMARK  151  A    between atoms: _365  and  _367
REMARK  152  A    between atoms: _367  and  _368
REMARK  153  A    between atoms: _367  and  _370
REMARK  154  A    between atoms: _370  and  _371
REMARK  155  A    between atoms: _373  and  _375
REMARK  156  A    between atoms: _375  and  _376
REMARK  157  A    between atoms: _375  and  _378
REMARK  158  A    between atoms: _378  and  _379
REMARK  159  A    between atoms: _379  and  _380
REMARK  160  A    between atoms: _385  and  _387
REMARK  161  A    between atoms: _387  and  _388
REMARK  162  A    between atoms: _387  and  _390
REMARK  163  A    between atoms: _390  and  _391
REMARK  164  A    between atoms: _394  and  _396
REMARK  165  A    between atoms: _396  and  _397
REMARK  166  A    between atoms: _396  and  _399
REMARK  167  A    between atoms: _402  and  _404
REMARK  168  A    between atoms: _404  and  _405
REMARK  169  A    between atoms: _404  and  _407
REMARK  170  A    between atoms: _407  and  _408
REMARK  171  A    between atoms: _408  and  _409
REMARK  172  A    between atoms: _409  and  _410
REMARK  173  A    between atoms: _419  and  _421
REMARK  174  A    between atoms: _421  and  _422
REMARK  175  A    between atoms: _421  and  _424
REMARK  176  A    between atoms: _424  and  _425
REMARK  177  A    between atoms: _428  and  _430
REMARK  178  A    between atoms: _430  and  _431
REMARK  179  A    between atoms: _430  and  _433
REMARK  180  A    between atoms: _433  and  _434
REMARK  181  A    between atoms: _444  and  _446
REMARK  182  A    between atoms: _446  and  _447
REMARK  183  A    between atoms: _446  and  _449
REMARK  184  A    between atoms: _449  and  _450
REMARK  185  A    between atoms: _454  and  _455
REMARK  186  A    between atoms: _460  and  _462
REMARK  187  A    between atoms: _462  and  _463
REMARK  188  A    between atoms: _462  and  _465
REMARK  189  A    between atoms: _465  and  _466
REMARK  190  A    between atoms: _472  and  _473
REMARK  191  A    between atoms: _478  and  _480
REMARK  192  A    between atoms: _480  and  _481
REMARK  193  A    between atoms: _483  and  _485
REMARK  194  A    between atoms: _485  and  _486
REMARK  195  A    between atoms: _485  and  _488
REMARK  196  A    between atoms: _488  and  _489
REMARK  197  A    between atoms: _492  and  _494
REMARK  198  A    between atoms: _494  and  _495
REMARK  199  A    between atoms: _494  and  _497
REMARK  200  A    between atoms: _497  and  _498
REMARK  201  A    between atoms: _498  and  _499
REMARK  202  A    between atoms: _499  and  _500
REMARK  203  A    between atoms: _500  and  _501
REMARK  204  A    between atoms: _505  and  _507
REMARK  205  A    between atoms: _507  and  _508
REMARK  206  A    between atoms: _507  and  _510
REMARK  207  A    between atoms: _513  and  _515
REMARK  208  A    between atoms: _515  and  _516
REMARK  209  A    between atoms: _519  and  _521
REMARK  210  A    between atoms: _521  and  _522
REMARK  211  A    between atoms: _521  and  _524
REMARK  212  A    between atoms: _524  and  _525
REMARK  213  A    between atoms: _528  and  _530
REMARK  214  A    between atoms: _530  and  _531
REMARK  215  A    between atoms: _530  and  _533
REMARK  216  A    between atoms: _533  and  _534
REMARK  217  A    between atoms: _540  and  _541
REMARK  218  A    between atoms: _546  and  _548
REMARK  219  A    between atoms: _548  and  _549
REMARK  220  A    between atoms: _548  and  _551
REMARK  221  A    between atoms: _551  and  _552
REMARK  222  A    between atoms: _558  and  _560
REMARK  223  A    between atoms: _560  and  _561
REMARK  224  A    between atoms: _560  and  _563
REMARK  225  A    between atoms: _563  and  _564
REMARK  226  A    between atoms: _567  and  _569
REMARK  227  A    between atoms: _569  and  _570
REMARK  228  A    between atoms: _572  and  _574
REMARK  229  A    between atoms: _574  and  _575
REMARK  230  A    between atoms: _574  and  _577
REMARK  231  A    between atoms: _577  and  _578
REMARK  232  A    between atoms: _581  and  _583
REMARK  233  A    between atoms: _583  and  _584
REMARK  234  A    between atoms: _583  and  _586
REMARK  235  A    between atoms: _586  and  _587
REMARK  236  A    between atoms: _593  and  _595
REMARK  237  A    between atoms: _595  and  _596
REMARK  238  A    between atoms: _595  and  _598
REMARK  239  A    between atoms: _598  and  _599
REMARK  240  A    between atoms: _599  and  _600
REMARK  241  A    between atoms: _605  and  _607
REMARK  242  A    between atoms: _607  and  _608
REMARK  243  A    between atoms: _607  and  _610
REMARK  244  A    between atoms: _610  and  _611
REMARK  245  A    between atoms: _614  and  _616
REMARK  246  A    between atoms: _616  and  _617
REMARK  247  A    between atoms: _616  and  _619
REMARK  248  A    between atoms: _619  and  _620
REMARK  249  A    between atoms: _622  and  _624
REMARK  250  A    between atoms: _624  and  _625
REMARK  251  A    between atoms: _624  and  _627
REMARK  252  A    between atoms: _627  and  _628
REMARK  253  A    between atoms: _634  and  _636
REMARK  254  A    between atoms: _636  and  _637
REMARK  255  A    between atoms: _636  and  _639
REMARK  256  A    between atoms: _639  and  _640
REMARK  257  A    between atoms: _645  and  _646
REMARK  258  A    between atoms: _648  and  _650
REMARK  259  A    between atoms: _650  and  _651
REMARK  260  A    between atoms: _650  and  _653
REMARK  261  A    between atoms: _653  and  _654
REMARK                            x       y       z     vdW  Elec       q    Type
REMARK                         _______ _______ _______ _____ _____    ______ ____
ROOT
ATOM      1  C   LEU A   2      32.193  -5.861 -43.593  0.00  0.00    +0.241 C 
ATOM      2  N   SER A   3      32.045  -5.034 -42.558  0.00  0.00    -0.295 N 
ATOM      3  H   SER A   3      31.445  -5.314 -41.756  0.00  0.00    +0.150 HD
ATOM      4  O   LEU A   2      32.882  -5.575 -44.584  0.00  0.00    -0.273 OA
ENDROOT
BRANCH   2   5
ATOM      5  CA  SER A   3      32.718  -3.739 -42.540  0.00  0.00    +0.178 C 
BRANCH   5   6
ATOM      6  C   SER A   3      33.893  -3.714 -41.565  0.00  0.00    +0.243 C 
ATOM      7  O   SER A   3      33.730  -4.035 -40.383  0.00  0.00    -0.273 OA
ATOM      8  N   GLN A   4      35.074  -3.348 -42.074  0.00  0.00    -0.298 N 
ATOM      9  H   GLN A   4      35.164  -3.275 -43.108  0.00  0.00    +0.150 HD
BRANCH   8  10
ATOM     10  CA  GLN A   4      36.257  -3.042 -41.246  0.00  0.00    +0.137 C 
BRANCH  10  11
ATOM     11  C   GLN A   4      36.942  -4.212 -40.522  0.00  0.00    +0.227 C 
ATOM     12  O   GLN A   4      38.173  -4.343 -40.576  0.00  0.00    -0.286 OA
ENDBRANCH  10  11
BRANCH  10  13
ATOM     13  CB  GLN A   4      35.951  -1.893 -40.266  0.00  0.00    +0.037 C 
BRANCH  13  14
ATOM     14  CG  GLN A   4      35.701  -0.551 -40.977  0.00  0.00    +0.087 C 
BRANCH  14  15
ATOM     15  CD  GLN A   4      35.232   0.557 -40.036  0.00  0.00    +0.219 C 
ATOM     16  OE1 GLN A   4      35.232   0.399 -38.812  0.00  0.00    -0.275 OA
ATOM     17  NE2 GLN A   4      34.812   1.681 -40.611  0.00  0.00    -0.329 N 
ATOM     18 HE21 GLN A   4      34.467   2.468 -40.025  0.00  0.00    +0.145 HD
ATOM     19 HE22 GLN A   4      34.829   1.773 -41.647  0.00  0.00    +0.145 HD
ENDBRANCH  14  15
ENDBRANCH  13  14
ENDBRANCH  10  13
ENDBRANCH   8  10
ENDBRANCH   5   6
BRANCH   5  20
ATOM     20  CB  SER A   3      31.734  -2.619 -42.194  0.00  0.00    +0.166 C 
BRANCH  20  21
ATOM     21  OG  SER A   3      32.360  -1.353 -42.340  0.00  0.00    -0.380 OA
ATOM     22  H   SER A   3      32.662  -1.242 -43.276  0.00  0.00    +0.211 HD
ENDBRANCH  20  21
ENDBRANCH   5  20
ENDBRANCH   2   5
BRANCH   1  23
ATOM     23  CA  LEU A   2      31.470  -7.205 -43.503  0.00  0.00    +0.149 C 
BRANCH  23  26
ATOM     24  C   ASN A   1      30.046  -8.127 -45.275  0.00  0.00    +0.239 C 
ATOM     25  O   ASN A   1      29.010  -7.869 -44.656  0.00  0.00    -0.274 OA
ATOM     26  N   LEU A   2      31.262  -7.807 -44.825  0.00  0.00    -0.297 N 
ATOM     27  H   LEU A   2      32.087  -7.990 -45.431  0.00  0.00    +0.150 HD
BRANCH  24  28
ATOM     28  CA  ASN A   1      29.985  -8.865 -46.619  0.00  0.00    +0.154 C 
BRANCH  28  29
ATOM     29  N   ASN A   1      29.405 -10.196 -46.467  0.00  0.00    -0.238 NA
ATOM     30  H   ASN A   1      28.383 -10.323 -46.611  0.00  0.00    +0.142 HD
ENDBRANCH  28  29
BRANCH  28  31
ATOM     31  CB  ASN A   1      29.184  -8.074 -47.657  0.00  0.00    +0.111 C 
BRANCH  31  32
ATOM     32  CG  ASN A   1      29.886  -6.814 -48.104  0.00  0.00    +0.221 C 
ATOM     33  ND2 ASN A   1      29.279  -5.656 -47.793  0.00  0.00    -0.329 N 
ATOM     34 HD21 ASN A   1      28.392  -5.663 -47.251  0.00  0.00    +0.145 HD
ATOM     35 HD22 ASN A   1      29.697  -4.753 -48.095  0.00  0.00    +0.145 HD
ATOM     36  OD1 ASN A   1      30.952  -6.869 -48.752  0.00  0.00    -0.275 OA
ENDBRANCH  31  32
ENDBRANCH  28  31
ENDBRANCH  24  28
ENDBRANCH  23  26
BRANCH  23  37
ATOM     37  CB  LEU A   2      32.266  -8.157 -42.591  0.00  0.00    +0.029 C 
BRANCH  37  38
ATOM     38  CG  LEU A   2      31.636  -9.510 -42.234  0.00  0.00    +0.002 C 
ATOM     39  CD2 LEU A   2      32.548 -10.298 -41.329  0.00  0.00    +0.000 C 
ATOM     40  CD1 LEU A   2      30.292  -9.326 -41.559  0.00  0.00    +0.000 C 
ENDBRANCH  37  38
ENDBRANCH  23  37
ENDBRANCH   1  23
TORSDOF 17
REMARK  Name = ../refined-set-2016/4idn/4idn_pocket.pdb
REMARK  261 active torsions:
REMARK  status: ('A' for Active; 'I' for Inactive)
REMARK    1  A    between atoms: _1  and  _3
REMARK    2  A    between atoms: _3  and  _4
REMARK    3  A    between atoms: _3  and  _6
REMARK    4  A    between atoms: _9  and  _11
REMARK    5  A    between atoms: _11  and  _12
REMARK    6  A    between atoms: _15  and  _17
REMARK    7  A    between atoms: _17  and  _18
REMARK    8  A    between atoms: _20  and  _22
REMARK    9  A    between atoms: _22  and  _23
REMARK   10  A    between atoms: _26  and  _28
REMARK   11  A    between atoms: _28  and  _29
REMARK   12  A    between atoms: _28  and  _31
REMARK   13  A    between atoms: _31  and  _32
REMARK   14  A    between atoms: _38  and  _40
REMARK   15  A    between atoms: _40  and  _41
REMARK   16  A    between atoms: _40  and  _43
REMARK   17  A    between atoms: _43  and  _44
REMARK   18  A    between atoms: _44  and  _45
REMARK   19  A    between atoms: _45  and  _46
REMARK   20  A    between atoms: _55  and  _57
REMARK   21  A    between atoms: _57  and  _58
REMARK   22  A    between atoms: _57  and  _60
REMARK   23  A    between atoms: _60  and  _61
REMARK   24  A    between atoms: _61  and  _62
REMARK   25  A    between atoms: _62  and  _63
REMARK   26  A    between atoms: _63  and  _64
REMARK   27  A    between atoms: _68  and  _70
REMARK   28  A    between atoms: _70  and  _71
REMARK   29  A    between atoms: _73  and  _75
REMARK   30  A    between atoms: _75  and  _76
REMARK   31  A    between atoms: _75  and  _78
REMARK   32  A    between atoms: _78  and  _79
REMARK   33  A    between atoms: _79  and  _80
REMARK   34  A    between atoms: _80  and  _81
REMARK   35  A    between atoms: _81  and  _82
REMARK   36  A    between atoms: _86  and  _88
REMARK   37  A    between atoms: _88  and  _89
REMARK   38  A    between atoms: _88  and  _91
REMARK   39  A    between atoms: _91  and  _92
REMARK   40  A    between atoms: _94  and  _96
REMARK   41  A    between atoms: _96  and  _97
REMARK   42  A    between atoms: _96  and  _99
REMARK   43  A    between atoms: _99  and  _100
REMARK   44  A    between atoms: _106  and  _108
REMARK   45  A    between atoms: _108  and  _109
REMARK   46  A    between atoms: _108  and  _111
REMARK   47  A    between atoms: _111  and  _112
REMARK   48  A    between atoms: _115  and  _117
REMARK   49  A    between atoms: _117  and  _118
REMARK   50  A    between atoms: _117  and  _120
REMARK   51  A    between atoms: _120  and  _121
REMARK   52  A    between atoms: _121  and  _122
REMARK   53  A    between atoms: _124  and  _126
REMARK   54  A    between atoms: _126  and  _127
REMARK   55  A    between atoms: _126  and  _129
REMARK   56  A    between atoms: _129  and  _130
REMARK   57  A    between atoms: _133  and  _135
REMARK   58  A    between atoms: _135  and  _136
REMARK   59  A    between atoms: _135  and  _138
REMARK   60  A    between atoms: _138  and  _139
REMARK   61  A    between atoms: _145  and  _147
REMARK   62  A    between atoms: _147  and  _148
REMARK   63  A    between atoms: _147  and  _150
REMARK   64  A    between atoms: _150  and  _151
REMARK   65  A    between atoms: _154  and  _156
REMARK   66  A    between atoms: _156  and  _157
REMARK   67  A    between atoms: _156  and  _159
REMARK   68  A    between atoms: _159  and  _160
REMARK   69  A    between atoms: _166  and  _168
REMARK   70  A    between atoms: _168  and  _169
REMARK   71  A    between atoms: _168  and  _171
REMARK   72  A    between atoms: _171  and  _172
REMARK   73  A    between atoms: _174  and  _176
REMARK   74  A    between atoms: _176  and  _177
REMARK   75  A    between atoms: _176  and  _179
REMARK   76  A    between atoms: _179  and  _180
REMARK   77  A    between atoms: _190  and  _192
REMARK   78  A    between atoms: _192  and  _193
REMARK   79  A    between atoms: _192  and  _195
REMARK   80  A    between atoms: _195  and  _196
REMARK   81  A    between atoms: _196  and  _197
REMARK   82  A    between atoms: _197  and  _198
REMARK   83  A    between atoms: _207  and  _209
REMARK   84  A    between atoms: _209  and  _210
REMARK   85  A    between atoms: _212  and  _214
REMARK   86  A    between atoms: _214  and  _215
REMARK   87  A    between atoms: _217  and  _219
REMARK   88  A    between atoms: _219  and  _220
REMARK   89  A    between atoms: _219  and  _222
REMARK   90  A    between atoms: _222  and  _223
REMARK   91  A    between atoms: _225  and  _227
REMARK   92  A    between atoms: _227  and  _228
REMARK   93  A    between atoms: _227  and  _230
REMARK   94  A    between atoms: _230  and  _231
REMARK   95  A    between atoms: _231  and  _232
REMARK   96  A    between atoms: _235  and  _237
REMARK   97  A    between atoms: _237  and  _238
REMARK   98  A    between atoms: _237  and  _240
REMARK   99  A    between atoms: _240  and  _241
REMARK  100  A    between atoms: _241  and  _242
REMARK  101  A    between atoms: _242  and  _243
REMARK  102  A    between atoms: _252  and  _254
REMARK  103  A    between atoms: _254  and  _255
REMARK  104  A    between atoms: _254  and  _257
REMARK  105  A    between atoms: _257  and  _258
REMARK  106  A    between atoms: _258  and  _259
REMARK  107  A    between atoms: _262  and  _264
REMARK  108  A    between atoms: _264  and  _265
REMARK  109  A    between atoms: _264  and  _267
REMARK  110  A    between atoms: _267  and  _268
REMARK  111  A    between atoms: _271  and  _273
REMARK  112  A    between atoms: _273  and  _274
REMARK  113  A    between atoms: _273  and  _276
REMARK  114  A    between atoms: _276  and  _277
REMARK  115  A    between atoms: _280  and  _282
REMARK  116  A    between atoms: _282  and  _283
REMARK  117  A    between atoms: _282  and  _285
REMARK  118  A    between atoms: _285  and  _286
REMARK  119  A    between atoms: _286  and  _287
REMARK  120  A    between atoms: _292  and  _294
REMARK  121  A    between atoms: _294  and  _295
REMARK  122  A    between atoms: _294  and  _297
REMARK  123  A    between atoms: _297  and  _298
REMARK  124  A    between atoms: _301  and  _303
REMARK  125  A    between atoms: _303  and  _304
REMARK  126  A    between atoms: _303  and  _306
REMARK  127  A    between atoms: _306  and  _307
REMARK  128  A    between atoms: _310  and  _312
REMARK  129  A    between atoms: _312  and  _313
REMARK  130  A    between atoms: _312  and  _315
REMARK  131  A    between atoms: _315  and  _316
REMARK  132  A    between atoms: _316  and  _317
REMARK  133  A    between atoms: _322  and  _324
REMARK  134  A    between atoms: _324  and  _325
REMARK  135  A    between atoms: _327  and  _329
REMARK  136  A    between atoms: _329  and  _330
REMARK  137  A    between atoms: _329  and  _332
REMARK  138  A    between atoms: _332  and  _333
REMARK  139  A    between atoms: _336  and  _338
REMARK  140  A    between atoms: _338  and  _339
REMARK  141  A    between atoms: _338  and  _341
REMARK  142  A    between atoms: _341  and  _342
REMARK  143  A    between atoms: _345  and  _347
REMARK  144  A    between atoms: _347  and  _348
REMARK  145  A    between atoms: _347  and  _350
REMARK  146  A    between atoms: _350  and  _351
REMARK  147  A    between atoms: _356  and  _358
REMARK  148  A    between atoms: _358  and  _359
REMARK  149  A    between atoms: _358  and  _361
REMARK  150  A    between atoms: _361  and  _362
REMARK  151  A    between atoms: _365  and  _367
REMARK  152  A    between atoms: _367  and  _368
REMARK  153  A    between atoms: _367  and  _370
REMARK  154  A    between atoms: _370  and  _371
REMARK  155  A    between atoms: _373  and  _375
REMARK  156  A    between atoms: _375  and  _376
REMARK  157  A    between atoms: _375  and  _378
REMARK  158  A    between atoms: _378  and  _379
REMARK  159  A    between atoms: _379  and  _380
REMARK  160  A    between atoms: _385  and  _387
REMARK  161  A    between atoms: _387  and  _388
REMARK  162  A    between atoms: _387  and  _390
REMARK  163  A    between atoms: _390  and  _391
REMARK  164  A    between atoms: _394  and  _396
REMARK  165  A    between atoms: _396  and  _397
REMARK  166  A    between atoms: _396  and  _399
REMARK  167  A    between atoms: _402  and  _404
REMARK  168  A    between atoms: _404  and  _405
REMARK  169  A    between atoms: _404  and  _407
REMARK  170  A    between atoms: _407  and  _408
REMARK  171  A    between atoms: _408  and  _409
REMARK  172  A    between atoms: _409  and  _410
REMARK  173  A    between atoms: _419  and  _421
REMARK  174  A    between atoms: _421  and  _422
REMARK  175  A    between atoms: _421  and  _424
REMARK  176  A    between atoms: _424  and  _425
REMARK  177  A    between atoms: _428  and  _430
REMARK  178  A    between atoms: _430  and  _431
REMARK  179  A    between atoms: _430  and  _433
REMARK  180  A    between atoms: _433  and  _434
REMARK  181  A    between atoms: _444  and  _446
REMARK  182  A    between atoms: _446  and  _447
REMARK  183  A    between atoms: _446  and  _449
REMARK  184  A    between atoms: _449  and  _450
REMARK  185  A    between atoms: _454  and  _455
REMARK  186  A    between atoms: _460  and  _462
REMARK  187  A    between atoms: _462  and  _463
REMARK  188  A    between atoms: _462  and  _465
REMARK  189  A    between atoms: _465  and  _466
REMARK  190  A    between atoms: _472  and  _473
REMARK  191  A    between atoms: _478  and  _480
REMARK  192  A    between atoms: _480  and  _481
REMARK  193  A    between atoms: _483  and  _485
REMARK  194  A    between atoms: _485  and  _486
REMARK  195  A    between atoms: _485  and  _488
REMARK  196  A    between atoms: _488  and  _489
REMARK  197  A    between atoms: _492  and  _494
REMARK  198  A    between atoms: _494  and  _495
REMARK  199  A    between atoms: _494  and  _497
REMARK  200  A    between atoms: _497  and  _498
REMARK  201  A    between atoms: _498  and  _499
REMARK  202  A    between atoms: _499  and  _500
REMARK  203  A    between atoms: _500  and  _501
REMARK  204  A    between atoms: _505  and  _507
REMARK  205  A    between atoms: _507  and  _508
REMARK  206  A    between atoms: _507  and  _510
REMARK  207  A    between atoms: _513  and  _515
REMARK  208  A    between atoms: _515  and  _516
REMARK  209  A    between atoms: _519  and  _521
REMARK  210  A    between atoms: _521  and  _522
REMARK  211  A    between atoms: _521  and  _524
REMARK  212  A    between atoms: _524  and  _525
REMARK  213  A    between atoms: _528  and  _530
REMARK  214  A    between atoms: _530  and  _531
REMARK  215  A    between atoms: _530  and  _533
REMARK  216  A    between atoms: _533  and  _534
REMARK  217  A    between atoms: _540  and  _541
REMARK  218  A    between atoms: _546  and  _548
REMARK  219  A    between atoms: _548  and  _549
REMARK  220  A    between atoms: _548  and  _551
REMARK  221  A    between atoms: _551  and  _552
REMARK  222  A    between atoms: _558  and  _560
REMARK  223  A    between atoms: _560  and  _561
REMARK  224  A    between atoms: _560  and  _563
REMARK  225  A    between atoms: _563  and  _564
REMARK  226  A    between atoms: _567  and  _569
REMARK  227  A    between atoms: _569  and  _570
REMARK  228  A    between atoms: _572  and  _574
REMARK  229  A    between atoms: _574  and  _575
REMARK  230  A    between atoms: _574  and  _577
REMARK  231  A    between atoms: _577  and  _578
REMARK  232  A    between atoms: _581  and  _583
REMARK  233  A    between atoms: _583  and  _584
REMARK  234  A    between atoms: _583  and  _586
REMARK  235  A    between atoms: _586  and  _587
REMARK  236  A    between atoms: _593  and  _595
REMARK  237  A    between atoms: _595  and  _596
REMARK  238  A    between atoms: _595  and  _598
REMARK  239  A    between atoms: _598  and  _599
REMARK  240  A    between atoms: _599  and  _600
REMARK  241  A    between atoms: _605  and  _607
REMARK  242  A    between atoms: _607  and  _608
REMARK  243  A    between atoms: _607  and  _610
REMARK  244  A    between atoms: _610  and  _611
REMARK  245  A    between atoms: _614  and  _616
REMARK  246  A    between atoms: _616  and  _617
REMARK  247  A    between atoms: _616  and  _619
REMARK  248  A    between atoms: _619  and  _620
REMARK  249  A    between atoms: _622  and  _624
REMARK  250  A    between atoms: _624  and  _625
REMARK  251  A    between atoms: _624  and  _627
REMARK  252  A    between atoms: _627  and  _628
REMARK  253  A    between atoms: _634  and  _636
REMARK  254  A    between atoms: _636  and  _637
REMARK  255  A    between atoms: _636  and  _639
REMARK  256  A    between atoms: _639  and  _640
REMARK  257  A    between atoms: _645  and  _646
REMARK  258  A    between atoms: _648  and  _650
REMARK  259  A    between atoms: _650  and  _651
REMARK  260  A    between atoms: _650  and  _653
REMARK  261  A    between atoms: _653  and  _654
REMARK                            x       y       z     vdW  Elec       q    Type
REMARK                         _______ _______ _______ _____ _____    ______ ____
ROOT
ATOM      1  CA  ARG A   3      35.264  -4.039 -46.676  0.00  0.00    +0.149 C 
ENDROOT
BRANCH   1   3
ATOM      2  C   VAL A   2      36.262  -6.131 -45.963  0.00  0.00    +0.241 C 
ATOM      3  N   ARG A   3      35.226  -5.298 -45.941  0.00  0.00    -0.297 N 
ATOM      4  H   ARG A   3      34.378  -5.547 -45.393  0.00  0.00    +0.150 HD
ATOM      5  O   VAL A   2      37.297  -5.911 -46.608  0.00  0.00    -0.273 OA
BRANCH   2   6
ATOM      6  CA  VAL A   2      36.098  -7.409 -45.155  0.00  0.00    +0.148 C 
BRANCH   6   9
ATOM      7  C   LEU A   1      34.801  -9.032 -46.393  0.00  0.00    +0.238 C 
ATOM      8  O   LEU A   1      33.738  -8.579 -45.942  0.00  0.00    -0.274 OA
ATOM      9  N   VAL A   2      35.996  -8.556 -46.052  0.00  0.00    -0.297 N 
ATOM     10  H   VAL A   2      36.858  -9.002 -46.425  0.00  0.00    +0.150 HD
BRANCH   7  11
ATOM     11  CA  LEU A   1      34.790 -10.211 -47.344  0.00  0.00    +0.145 C 
BRANCH  11  12
ATOM     12  N   LEU A   1      34.259 -11.370 -46.627  0.00  0.00    -0.238 NA
ATOM     13  H   LEU A   1      33.231 -11.497 -46.534  0.00  0.00    +0.142 HD
ENDBRANCH  11  12
BRANCH  11  14
ATOM     14  CB  LEU A   1      33.951  -9.888 -48.582  0.00  0.00    +0.026 C 
BRANCH  14  15
ATOM     15  CG  LEU A   1      34.353  -8.661 -49.405  0.00  0.00    +0.002 C 
ATOM     16  CD2 LEU A   1      35.807  -8.734 -49.878  0.00  0.00    +0.000 C 
ATOM     17  CD1 LEU A   1      33.422  -8.476 -50.598  0.00  0.00    +0.000 C 
ENDBRANCH  14  15
ENDBRANCH  11  14
ENDBRANCH   7  11
ENDBRANCH   6   9
BRANCH   6  18
ATOM     18  CB  VAL A   2      37.241  -7.543 -44.138  0.00  0.00    +0.027 C 
ATOM     19  CG2 VAL A   2      37.263  -6.331 -43.236  0.00  0.00    +0.002 C 
ATOM     20  CG1 VAL A   2      37.056  -8.797 -43.295  0.00  0.00    +0.002 C 
ENDBRANCH   6  18
ENDBRANCH   2   6
ENDBRANCH   1   3
BRANCH   1  21
ATOM     21  C   ARG A   3      36.014  -3.001 -45.851  0.00  0.00    +0.241 C 
ATOM     22  O   ARG A   3      35.937  -3.007 -44.614  0.00  0.00    -0.273 OA
ATOM     23  N   ASP A   4      36.745  -2.118 -46.524  0.00  0.00    -0.297 N 
ATOM     24  H   ASP A   4      36.823  -2.205 -47.557  0.00  0.00    +0.150 HD
BRANCH  23  25
ATOM     25  CA  ASP A   4      37.443  -1.025 -45.841  0.00  0.00    +0.160 C 
BRANCH  25  26
ATOM     26  C   ASP A   4      38.435  -1.527 -44.792  0.00  0.00    +0.241 C 
ATOM     27  O   ASP A   4      38.543  -0.957 -43.703  0.00  0.00    -0.273 OA
ATOM     28  N   TRP A   5      39.143  -2.603 -45.104  0.00  0.00    -0.298 N 
ATOM     29  H   TRP A   5      38.928  -3.126 -45.977  0.00  0.00    +0.150 HD
BRANCH  28  30
ATOM     30  CA  TRP A   5      40.219  -3.060 -44.235  0.00  0.00    +0.141 C 
BRANCH  30  31
ATOM     31  C   TRP A   5      41.221  -1.922 -44.097  0.00  0.00    +0.227 C 
ATOM     32  O   TRP A   5      41.607  -1.306 -45.095  0.00  0.00    -0.286 OA
ENDBRANCH  30  31
BRANCH  30  33
ATOM     33  CB  TRP A   5      40.880  -4.285 -44.847  0.00  0.00    +0.056 C 
BRANCH  33  34
ATOM     34  CG  TRP A   5      42.052  -4.818 -44.087  0.00  0.00    -0.002 A 
ATOM     35  CD2 TRP A   5      42.030  -5.438 -42.795  0.00  0.00    +0.013 A 
ATOM     36  CE3 TRP A   5      41.020  -5.709 -41.865  0.00  0.00    +0.001 A 
ATOM     37  CZ3 TRP A   5      41.365  -6.332 -40.667  0.00  0.00    +0.000 A 
ATOM     38  CH2 TRP A   5      42.701  -6.693 -40.389  0.00  0.00    +0.001 A 
ATOM     39  CZ2 TRP A   5      43.708  -6.431 -41.278  0.00  0.00    +0.017 A 
ATOM     40  CE2 TRP A   5      43.362  -5.804 -42.481  0.00  0.00    +0.056 A 
ATOM     41  NE1 TRP A   5      44.151  -5.427 -43.541  0.00  0.00    -0.352 N 
ATOM     42  HE1 TRP A   5      45.180  -5.564 -43.606  0.00  0.00    +0.166 HD
ATOM     43  CD1 TRP A   5      43.362  -4.840 -44.503  0.00  0.00    +0.068 A 
ENDBRANCH  33  34
ENDBRANCH  30  33
ENDBRANCH  28  30
ENDBRANCH  25  26
BRANCH  25  44
ATOM     44  CB  ASP A   4      36.459  -0.055 -45.166  0.00  0.00    +0.143 C 
BRANCH  44  45
ATOM     45  CG  ASP A   4      35.444   0.548 -46.137  0.00  0.00    +0.367 C 
ATOM     46  OD2 ASP A   4      34.513   1.235 -45.661  0.00  0.00    -0.246 OA
ATOM     47  OD1 ASP A   4      35.575   0.353 -47.365  0.00  0.00    -0.246 OA
ENDBRANCH  44  45
ENDBRANCH  25  44
ENDBRANCH  23  25
ENDBRANCH   1  21
BRANCH   1  48
ATOM     48  CB  ARG A   3      33.838  -3.548 -46.981  0.00  0.00    +0.033 C 
BRANCH  48  49
ATOM     49  CG  ARG A   3      32.973  -4.578 -47.731  0.00  0.00    +0.045 C 
BRANCH  49  50
ATOM     50  CD  ARG A   3      33.466  -4.788 -49.166  0.00  0.00    +0.174 C 
BRANCH  50  51
ATOM     51  NE  ARG A   3      32.907  -3.797 -50.097  0.00  0.00    -0.265 N 
ATOM     52  HE  ARG A   3      33.412  -2.895 -50.209  0.00  0.00    +0.259 HD
ATOM     53  CZ  ARG A   3      31.792  -3.981 -50.808  0.00  0.00    +0.342 C 
ATOM     54  NH2 ARG A   3      31.110  -5.116 -50.694  0.00  0.00    -0.292 N 
ATOM     55 HH21 ARG A   3      31.445  -5.861 -50.051  0.00  0.00    +0.255 HD
ATOM     56 HH22 ARG A   3      30.242  -5.259 -51.248  0.00  0.00    +0.255 HD
ATOM     57  NH1 ARG A   3      31.357  -3.034 -51.637  0.00  0.00    -0.292 N 
ATOM     58 HH11 ARG A   3      31.887  -2.144 -51.734  0.00  0.00    +0.255 HD
ATOM     59 HH12 ARG A   3      30.488  -3.184 -52.188  0.00  0.00    +0.255 HD
ENDBRANCH  50  51
ENDBRANCH  49  50
ENDBRANCH  48  49
ENDBRANCH   1  48
TORSDOF 21
REMARK  Name = ../refined-set-2016/4idn/4idn_pocket.pdb
REMARK  261 active torsions:
REMARK  status: ('A' for Active; 'I' for Inactive)
REMARK    1  A    between atoms: _1  and  _3
REMARK    2  A    between atoms: _3  and  _4
REMARK    3  A    between atoms: _3  and  _6
REMARK    4  A    between atoms: _9  and  _11
REMARK    5  A    between atoms: _11  and  _12
REMARK    6  A    between atoms: _15  and  _17
REMARK    7  A    between atoms: _17  and  _18
REMARK    8  A    between atoms: _20  and  _22
REMARK    9  A    between atoms: _22  and  _23
REMARK   10  A    between atoms: _26  and  _28
REMARK   11  A    between atoms: _28  and  _29
REMARK   12  A    between atoms: _28  and  _31
REMARK   13  A    between atoms: _31  and  _32
REMARK   14  A    between atoms: _38  and  _40
REMARK   15  A    between atoms: _40  and  _41
REMARK   16  A    between atoms: _40  and  _43
REMARK   17  A    between atoms: _43  and  _44
REMARK   18  A    between atoms: _44  and  _45
REMARK   19  A    between atoms: _45  and  _46
REMARK   20  A    between atoms: _55  and  _57
REMARK   21  A    between atoms: _57  and  _58
REMARK   22  A    between atoms: _57  and  _60
REMARK   23  A    between atoms: _60  and  _61
REMARK   24  A    between atoms: _61  and  _62
REMARK   25  A    between atoms: _62  and  _63
REMARK   26  A    between atoms: _63  and  _64
REMARK   27  A    between atoms: _68  and  _70
REMARK   28  A    between atoms: _70  and  _71
REMARK   29  A    between atoms: _73  and  _75
REMARK   30  A    between atoms: _75  and  _76
REMARK   31  A    between atoms: _75  and  _78
REMARK   32  A    between atoms: _78  and  _79
REMARK   33  A    between atoms: _79  and  _80
REMARK   34  A    between atoms: _80  and  _81
REMARK   35  A    between atoms: _81  and  _82
REMARK   36  A    between atoms: _86  and  _88
REMARK   37  A    between atoms: _88  and  _89
REMARK   38  A    between atoms: _88  and  _91
REMARK   39  A    between atoms: _91  and  _92
REMARK   40  A    between atoms: _94  and  _96
REMARK   41  A    between atoms: _96  and  _97
REMARK   42  A    between atoms: _96  and  _99
REMARK   43  A    between atoms: _99  and  _100
REMARK   44  A    between atoms: _106  and  _108
REMARK   45  A    between atoms: _108  and  _109
REMARK   46  A    between atoms: _108  and  _111
REMARK   47  A    between atoms: _111  and  _112
REMARK   48  A    between atoms: _115  and  _117
REMARK   49  A    between atoms: _117  and  _118
REMARK   50  A    between atoms: _117  and  _120
REMARK   51  A    between atoms: _120  and  _121
REMARK   52  A    between atoms: _121  and  _122
REMARK   53  A    between atoms: _124  and  _126
REMARK   54  A    between atoms: _126  and  _127
REMARK   55  A    between atoms: _126  and  _129
REMARK   56  A    between atoms: _129  and  _130
REMARK   57  A    between atoms: _133  and  _135
REMARK   58  A    between atoms: _135  and  _136
REMARK   59  A    between atoms: _135  and  _138
REMARK   60  A    between atoms: _138  and  _139
REMARK   61  A    between atoms: _145  and  _147
REMARK   62  A    between atoms: _147  and  _148
REMARK   63  A    between atoms: _147  and  _150
REMARK   64  A    between atoms: _150  and  _151
REMARK   65  A    between atoms: _154  and  _156
REMARK   66  A    between atoms: _156  and  _157
REMARK   67  A    between atoms: _156  and  _159
REMARK   68  A    between atoms: _159  and  _160
REMARK   69  A    between atoms: _166  and  _168
REMARK   70  A    between atoms: _168  and  _169
REMARK   71  A    between atoms: _168  and  _171
REMARK   72  A    between atoms: _171  and  _172
REMARK   73  A    between atoms: _174  and  _176
REMARK   74  A    between atoms: _176  and  _177
REMARK   75  A    between atoms: _176  and  _179
REMARK   76  A    between atoms: _179  and  _180
REMARK   77  A    between atoms: _190  and  _192
REMARK   78  A    between atoms: _192  and  _193
REMARK   79  A    between atoms: _192  and  _195
REMARK   80  A    between atoms: _195  and  _196
REMARK   81  A    between atoms: _196  and  _197
REMARK   82  A    between atoms: _197  and  _198
REMARK   83  A    between atoms: _207  and  _209
REMARK   84  A    between atoms: _209  and  _210
REMARK   85  A    between atoms: _212  and  _214
REMARK   86  A    between atoms: _214  and  _215
REMARK   87  A    between atoms: _217  and  _219
REMARK   88  A    between atoms: _219  and  _220
REMARK   89  A    between atoms: _219  and  _222
REMARK   90  A    between atoms: _222  and  _223
REMARK   91  A    between atoms: _225  and  _227
REMARK   92  A    between atoms: _227  and  _228
REMARK   93  A    between atoms: _227  and  _230
REMARK   94  A    between atoms: _230  and  _231
REMARK   95  A    between atoms: _231  and  _232
REMARK   96  A    between atoms: _235  and  _237
REMARK   97  A    between atoms: _237  and  _238
REMARK   98  A    between atoms: _237  and  _240
REMARK   99  A    between atoms: _240  and  _241
REMARK  100  A    between atoms: _241  and  _242
REMARK  101  A    between atoms: _242  and  _243
REMARK  102  A    between atoms: _252  and  _254
REMARK  103  A    between atoms: _254  and  _255
REMARK  104  A    between atoms: _254  and  _257
REMARK  105  A    between atoms: _257  and  _258
REMARK  106  A    between atoms: _258  and  _259
REMARK  107  A    between atoms: _262  and  _264
REMARK  108  A    between atoms: _264  and  _265
REMARK  109  A    between atoms: _264  and  _267
REMARK  110  A    between atoms: _267  and  _268
REMARK  111  A    between atoms: _271  and  _273
REMARK  112  A    between atoms: _273  and  _274
REMARK  113  A    between atoms: _273  and  _276
REMARK  114  A    between atoms: _276  and  _277
REMARK  115  A    between atoms: _280  and  _282
REMARK  116  A    between atoms: _282  and  _283
REMARK  117  A    between atoms: _282  and  _285
REMARK  118  A    between atoms: _285  and  _286
REMARK  119  A    between atoms: _286  and  _287
REMARK  120  A    between atoms: _292  and  _294
REMARK  121  A    between atoms: _294  and  _295
REMARK  122  A    between atoms: _294  and  _297
REMARK  123  A    between atoms: _297  and  _298
REMARK  124  A    between atoms: _301  and  _303
REMARK  125  A    between atoms: _303  and  _304
REMARK  126  A    between atoms: _303  and  _306
REMARK  127  A    between atoms: _306  and  _307
REMARK  128  A    between atoms: _310  and  _312
REMARK  129  A    between atoms: _312  and  _313
REMARK  130  A    between atoms: _312  and  _315
REMARK  131  A    between atoms: _315  and  _316
REMARK  132  A    between atoms: _316  and  _317
REMARK  133  A    between atoms: _322  and  _324
REMARK  134  A    between atoms: _324  and  _325
REMARK  135  A    between atoms: _327  and  _329
REMARK  136  A    between atoms: _329  and  _330
REMARK  137  A    between atoms: _329  and  _332
REMARK  138  A    between atoms: _332  and  _333
REMARK  139  A    between atoms: _336  and  _338
REMARK  140  A    between atoms: _338  and  _339
REMARK  141  A    between atoms: _338  and  _341
REMARK  142  A    between atoms: _341  and  _342
REMARK  143  A    between atoms: _345  and  _347
REMARK  144  A    between atoms: _347  and  _348
REMARK  145  A    between atoms: _347  and  _350
REMARK  146  A    between atoms: _350  and  _351
REMARK  147  A    between atoms: _356  and  _358
REMARK  148  A    between atoms: _358  and  _359
REMARK  149  A    between atoms: _358  and  _361
REMARK  150  A    between atoms: _361  and  _362
REMARK  151  A    between atoms: _365  and  _367
REMARK  152  A    between atoms: _367  and  _368
REMARK  153  A    between atoms: _367  and  _370
REMARK  154  A    between atoms: _370  and  _371
REMARK  155  A    between atoms: _373  and  _375
REMARK  156  A    between atoms: _375  and  _376
REMARK  157  A    between atoms: _375  and  _378
REMARK  158  A    between atoms: _378  and  _379
REMARK  159  A    between atoms: _379  and  _380
REMARK  160  A    between atoms: _385  and  _387
REMARK  161  A    between atoms: _387  and  _388
REMARK  162  A    between atoms: _387  and  _390
REMARK  163  A    between atoms: _390  and  _391
REMARK  164  A    between atoms: _394  and  _396
REMARK  165  A    between atoms: _396  and  _397
REMARK  166  A    between atoms: _396  and  _399
REMARK  167  A    between atoms: _402  and  _404
REMARK  168  A    between atoms: _404  and  _405
REMARK  169  A    between atoms: _404  and  _407
REMARK  170  A    between atoms: _407  and  _408
REMARK  171  A    between atoms: _408  and  _409
REMARK  172  A    between atoms: _409  and  _410
REMARK  173  A    between atoms: _419  and  _421
REMARK  174  A    between atoms: _421  and  _422
REMARK  175  A    between atoms: _421  and  _424
REMARK  176  A    between atoms: _424  and  _425
REMARK  177  A    between atoms: _428  and  _430
REMARK  178  A    between atoms: _430  and  _431
REMARK  179  A    between atoms: _430  and  _433
REMARK  180  A    between atoms: _433  and  _434
REMARK  181  A    between atoms: _444  and  _446
REMARK  182  A    between atoms: _446  and  _447
REMARK  183  A    between atoms: _446  and  _449
REMARK  184  A    between atoms: _449  and  _450
REMARK  185  A    between atoms: _454  and  _455
REMARK  186  A    between atoms: _460  and  _462
REMARK  187  A    between atoms: _462  and  _463
REMARK  188  A    between atoms: _462  and  _465
REMARK  189  A    between atoms: _465  and  _466
REMARK  190  A    between atoms: _472  and  _473
REMARK  191  A    between atoms: _478  and  _480
REMARK  192  A    between atoms: _480  and  _481
REMARK  193  A    between atoms: _483  and  _485
REMARK  194  A    between atoms: _485  and  _486
REMARK  195  A    between atoms: _485  and  _488
REMARK  196  A    between atoms: _488  and  _489
REMARK  197  A    between atoms: _492  and  _494
REMARK  198  A    between atoms: _494  and  _495
REMARK  199  A    between atoms: _494  and  _497
REMARK  200  A    between atoms: _497  and  _498
REMARK  201  A    between atoms: _498  and  _499
REMARK  202  A    between atoms: _499  and  _500
REMARK  203  A    between atoms: _500  and  _501
REMARK  204  A    between atoms: _505  and  _507
REMARK  205  A    between atoms: _507  and  _508
REMARK  206  A    between atoms: _507  and  _510
REMARK  207  A    between atoms: _513  and  _515
REMARK  208  A    between atoms: _515  and  _516
REMARK  209  A    between atoms: _519  and  _521
REMARK  210  A    between atoms: _521  and  _522
REMARK  211  A    between atoms: _521  and  _524
REMARK  212  A    between atoms: _524  and  _525
REMARK  213  A    between atoms: _528  and  _530
REMARK  214  A    between atoms: _530  and  _531
REMARK  215  A    between atoms: _530  and  _533
REMARK  216  A    between atoms: _533  and  _534
REMARK  217  A    between atoms: _540  and  _541
REMARK  218  A    between atoms: _546  and  _548
REMARK  219  A    between atoms: _548  and  _549
REMARK  220  A    between atoms: _548  and  _551
REMARK  221  A    between atoms: _551  and  _552
REMARK  222  A    between atoms: _558  and  _560
REMARK  223  A    between atoms: _560  and  _561
REMARK  224  A    between atoms: _560  and  _563
REMARK  225  A    between atoms: _563  and  _564
REMARK  226  A    between atoms: _567  and  _569
REMARK  227  A    between atoms: _569  and  _570
REMARK  228  A    between atoms: _572  and  _574
REMARK  229  A    between atoms: _574  and  _575
REMARK  230  A    between atoms: _574  and  _577
REMARK  231  A    between atoms: _577  and  _578
REMARK  232  A    between atoms: _581  and  _583
REMARK  233  A    between atoms: _583  and  _584
REMARK  234  A    between atoms: _583  and  _586
REMARK  235  A    between atoms: _586  and  _587
REMARK  236  A    between atoms: _593  and  _595
REMARK  237  A    between atoms: _595  and  _596
REMARK  238  A    between atoms: _595  and  _598
REMARK  239  A    between atoms: _598  and  _599
REMARK  240  A    between atoms: _599  and  _600
REMARK  241  A    between atoms: _605  and  _607
REMARK  242  A    between atoms: _607  and  _608
REMARK  243  A    between atoms: _607  and  _610
REMARK  244  A    between atoms: _610  and  _611
REMARK  245  A    between atoms: _614  and  _616
REMARK  246  A    between atoms: _616  and  _617
REMARK  247  A    between atoms: _616  and  _619
REMARK  248  A    between atoms: _619  and  _620
REMARK  249  A    between atoms: _622  and  _624
REMARK  250  A    between atoms: _624  and  _625
REMARK  251  A    between atoms: _624  and  _627
REMARK  252  A    between atoms: _627  and  _628
REMARK  253  A    between atoms: _634  and  _636
REMARK  254  A    between atoms: _636  and  _637
REMARK  255  A    between atoms: _636  and  _639
REMARK  256  A    between atoms: _639  and  _640
REMARK  257  A    between atoms: _645  and  _646
REMARK  258  A    between atoms: _648  and  _650
REMARK  259  A    between atoms: _650  and  _651
REMARK  260  A    between atoms: _650  and  _653
REMARK  261  A    between atoms: _653  and  _654
REMARK                            x       y       z     vdW  Elec       q    Type
REMARK                         _______ _______ _______ _____ _____    ______ ____
ROOT
ATOM      1  CA  LYS A   7      34.155  10.018 -52.541  0.00  0.00    +0.149 C 
ENDROOT
BRANCH   1   2
ATOM      2  C   LYS A   7      33.106   8.933 -52.803  0.00  0.00    +0.241 C 
ATOM      3  O   LYS A   7      31.909   9.231 -52.899  0.00  0.00    -0.273 OA
ATOM      4  N   VAL A   8      33.543   7.680 -52.913  0.00  0.00    -0.297 N 
ATOM      5  H   VAL A   8      34.564   7.488 -52.873  0.00  0.00    +0.150 HD
BRANCH   4   6
ATOM      6  CA  VAL A   8      32.603   6.567 -53.090  0.00  0.00    +0.149 C 
BRANCH   6   7
ATOM      7  C   VAL A   8      31.572   6.511 -51.958  0.00  0.00    +0.241 C 
ATOM      8  N   ALA A   9      31.998   6.851 -50.743  0.00  0.00    -0.297 N 
ATOM      9  H   ALA A   9      32.964   7.217 -50.622  0.00  0.00    +0.150 HD
ATOM     10  O   VAL A   8      30.405   6.184 -52.187  0.00  0.00    -0.273 OA
BRANCH   8  11
ATOM     11  CA  ALA A   9      31.124   6.717 -49.573  0.00  0.00    +0.149 C 
ATOM     12  CB  ALA A   9      31.933   6.353 -48.338  0.00  0.00    +0.031 C 
BRANCH  11  13
ATOM     13  C   ALA A   9      30.276   7.958 -49.295  0.00  0.00    +0.241 C 
ATOM     14  O   ALA A   9      29.165   7.828 -48.780  0.00  0.00    -0.273 OA
ATOM     15  N   THR A  10      30.791   9.148 -49.616  0.00  0.00    -0.295 N 
ATOM     16  H   THR A  10      31.677   9.196 -50.159  0.00  0.00    +0.150 HD
BRANCH  15  17
ATOM     17  CA  THR A  10      30.119  10.392 -49.210  0.00  0.00    +0.176 C 
BRANCH  17  18
ATOM     18  C   THR A  10      29.560  11.283 -50.326  0.00  0.00    +0.243 C 
ATOM     19  O   THR A  10      28.824  12.223 -50.040  0.00  0.00    -0.273 OA
ATOM     20  N   ASN A  11      29.923  11.029 -51.582  0.00  0.00    -0.297 N 
ATOM     21  H   ASN A  11      30.543  10.219 -51.787  0.00  0.00    +0.150 HD
BRANCH  20  22
ATOM     22  CA  ASN A  11      29.453  11.886 -52.682  0.00  0.00    +0.158 C 
BRANCH  22  23
ATOM     23  C   ASN A  11      28.115  11.393 -53.248  0.00  0.00    +0.244 C 
ATOM     24  N   PRO A  12      27.065  12.222 -53.123  0.00  0.00    -0.273 N 
ATOM     25  CD  PRO A  12      27.094  13.572 -52.528  0.00  0.00    +0.094 C 
ATOM     26  CG  PRO A  12      25.789  14.168 -52.973  0.00  0.00    +0.024 C 
ATOM     27  CB  PRO A  12      24.839  12.977 -53.048  0.00  0.00    +0.030 C 
ATOM     28  CA  PRO A  12      25.715  11.828 -53.550  0.00  0.00    +0.140 C 
ATOM     29  O   ASN A  11      28.026  10.278 -53.780  0.00  0.00    -0.273 OA
BRANCH  28  30
ATOM     30  C   PRO A  12      25.605  11.725 -55.065  0.00  0.00    +0.227 C 
ATOM     31  O   PRO A  12      24.669  11.107 -55.576  0.00  0.00    -0.286 OA
ENDBRANCH  28  30
ENDBRANCH  22  23
BRANCH  22  32
ATOM     32  CB  ASN A  11      30.515  12.001 -53.785  0.00  0.00    +0.114 C 
BRANCH  32  33
ATOM     33  CG  ASN A  11      30.033  12.798 -55.005  0.00  0.00    +0.222 C 
ATOM     34  OD1 ASN A  11      29.049  13.531 -54.941  0.00  0.00    -0.275 OA
ATOM     35  ND2 ASN A  11      30.738  12.648 -56.125  0.00  0.00    -0.329 N 
ATOM     36 HD21 ASN A  11      31.565  12.018 -56.138  0.00  0.00    +0.145 HD
ATOM     37 HD22 ASN A  11      30.461  13.161 -56.986  0.00  0.00    +0.145 HD
ENDBRANCH  32  33
ENDBRANCH  22  32
ENDBRANCH  20  22
ENDBRANCH  17  18
BRANCH  17  38
ATOM     38  CB  THR A  10      31.024  11.293 -48.336  0.00  0.00    +0.137 C 
ATOM     39  CG2 THR A  10      31.662  10.491 -47.217  0.00  0.00    +0.034 C 
BRANCH  38  40
ATOM     40  OG1 THR A  10      32.040  11.890 -49.154  0.00  0.00    -0.382 OA
ATOM     41  HG1 THR A  10      32.618  12.466 -48.593  0.00  0.00    +0.210 HD
ENDBRANCH  38  40
ENDBRANCH  17  38
ENDBRANCH  15  17
ENDBRANCH  11  13
ENDBRANCH   8  11
ENDBRANCH   6   7
BRANCH   6  42
ATOM     42  CB  VAL A   8      33.330   5.206 -53.178  0.00  0.00    +0.027 C 
ATOM     43  CG2 VAL A   8      32.326   4.060 -53.227  0.00  0.00    +0.002 C 
ATOM     44  CG1 VAL A   8      34.257   5.163 -54.391  0.00  0.00    +0.002 C 
ENDBRANCH   6  42
ENDBRANCH   4   6
ENDBRANCH   1   2
BRANCH   1  47
ATOM     45  C   LEU A   6      34.789   9.371 -50.267  0.00  0.00    +0.241 C 
ATOM     46  O   LEU A   6      33.638   9.510 -49.856  0.00  0.00    -0.273 OA
ATOM     47  N   LYS A   7      35.143   9.621 -51.529  0.00  0.00    -0.297 N 
ATOM     48  H   LYS A   7      36.142   9.533 -51.803  0.00  0.00    +0.150 HD
BRANCH  45  49
ATOM     49  CA  LEU A   6      35.881   8.871 -49.323  0.00  0.00    +0.149 C 
BRANCH  49  51
ATOM     50  C   GLY A   5      36.706   6.994 -50.634  0.00  0.00    +0.243 C 
ATOM     51  N   LEU A   6      36.950   8.140 -50.007  0.00  0.00    -0.297 N 
ATOM     52  H   LEU A   6      37.916   8.524 -50.002  0.00  0.00    +0.150 HD
ATOM     53  O   GLY A   5      35.571   6.538 -50.787  0.00  0.00    -0.273 OA
BRANCH  50  54
ATOM     54  CA  GLY A   5      37.901   6.246 -51.182  0.00  0.00    +0.176 C 
BRANCH  54  56
ATOM     55  C   PRO A   4      37.546   4.130 -52.310  0.00  0.00    +0.241 C 
ATOM     56  N   GLY A   5      37.619   4.821 -51.179  0.00  0.00    -0.295 N 
ATOM     57  H   GLY A   5      37.471   4.333 -50.273  0.00  0.00    +0.150 HD
ATOM     58  O   PRO A   4      37.687   4.650 -53.422  0.00  0.00    -0.273 OA
BRANCH  55  65
ATOM     59  C   HIS A   3      38.545   1.966 -50.156  0.00  0.00    +0.244 C 
ATOM     60  O   HIS A   3      39.634   2.223 -50.676  0.00  0.00    -0.273 OA
ATOM     61  N   PRO A   4      37.373   2.143 -50.796  0.00  0.00    -0.272 N 
ATOM     62  CD  PRO A   4      36.046   1.801 -50.241  0.00  0.00    +0.094 C 
ATOM     63  CG  PRO A   4      35.086   2.438 -51.226  0.00  0.00    +0.024 C 
ATOM     64  CB  PRO A   4      35.819   2.343 -52.550  0.00  0.00    +0.031 C 
ATOM     65  CA  PRO A   4      37.279   2.631 -52.183  0.00  0.00    +0.152 C 
BRANCH  59  66
ATOM     66  CA  HIS A   3      38.492   1.429 -48.725  0.00  0.00    +0.155 C 
BRANCH  66  68
ATOM     67  C   PRO A   2      39.568  -0.698 -49.264  0.00  0.00    +0.241 C 
ATOM     68  N   HIS A   3      39.555   0.444 -48.583  0.00  0.00    -0.297 N 
ATOM     69  H   HIS A   3      40.334   0.641 -47.923  0.00  0.00    +0.150 HD
ATOM     70  O   PRO A   2      38.624  -1.094 -49.963  0.00  0.00    -0.273 OA
BRANCH  67  74
ATOM     71  C   LEU A   1      39.760  -3.733 -48.832  0.00  0.00    +0.241 C 
ATOM     72  O   LEU A   1      39.261  -3.374 -47.756  0.00  0.00    -0.273 OA
ATOM     73  N   PRO A   2      40.567  -2.936 -49.559  0.00  0.00    -0.272 N 
ATOM     74  CA  PRO A   2      40.827  -1.552 -49.137  0.00  0.00    +0.152 C 
ATOM     75  CB  PRO A   2      41.862  -1.052 -50.155  0.00  0.00    +0.031 C 
ATOM     76  CG  PRO A   2      42.365  -2.259 -50.862  0.00  0.00    +0.024 C 
ATOM     77  CD  PRO A   2      41.240  -3.252 -50.829  0.00  0.00    +0.094 C 
BRANCH  71  78
ATOM     78  CA  LEU A   1      39.495  -5.142 -49.373  0.00  0.00    +0.145 C 
BRANCH  78  79
ATOM     79  N   LEU A   1      39.614  -6.149 -48.319  0.00  0.00    -0.238 NA
ATOM     80  H   LEU A   1      38.866  -6.229 -47.601  0.00  0.00    +0.142 HD
ENDBRANCH  78  79
BRANCH  78  81
ATOM     81  CB  LEU A   1      38.103  -5.232 -49.999  0.00  0.00    +0.026 C 
BRANCH  81  82
ATOM     82  CG  LEU A   1      37.839  -4.634 -51.378  0.00  0.00    +0.002 C 
ATOM     83  CD2 LEU A   1      36.359  -4.839 -51.743  0.00  0.00    +0.000 C 
ATOM     84  CD1 LEU A   1      38.735  -5.262 -52.420  0.00  0.00    +0.000 C 
ENDBRANCH  81  82
ENDBRANCH  78  81
ENDBRANCH  71  78
ENDBRANCH  67  74
ENDBRANCH  66  68
BRANCH  66  85
ATOM     85  CB  HIS A   3      38.745   2.571 -47.733  0.00  0.00    +0.076 C 
BRANCH  85  86
ATOM     86  CG  HIS A   3      37.556   3.448 -47.481  0.00  0.00    +0.082 A 
ATOM     87  CD2 HIS A   3      36.820   3.651 -46.360  0.00  0.00    +0.115 A 
ATOM     88  NE2 HIS A   3      35.854   4.579 -46.671  0.00  0.00    -0.221 NA
ATOM     89  CE1 HIS A   3      35.995   4.938 -47.936  0.00  0.00    +0.199 A 
ATOM     90  ND1 HIS A   3      37.020   4.273 -48.446  0.00  0.00    -0.227 NA
ENDBRANCH  85  86
ENDBRANCH  66  85
ENDBRANCH  59  66
ENDBRANCH  55  65
ENDBRANCH  54  56
ENDBRANCH  50  54
ENDBRANCH  49  51
BRANCH  49  91
ATOM     91  CB  LEU A   6      36.460  10.008 -48.473  0.00  0.00    +0.029 C 
BRANCH  91  92
ATOM     92  CG  LEU A   6      37.290   9.470 -47.301  0.00  0.00    +0.002 C 
ATOM     93  CD2 LEU A   6      36.391   8.689 -46.339  0.00  0.00    +0.000 C 
ATOM     94  CD1 LEU A   6      38.053  10.566 -46.563  0.00  0.00    +0.000 C 
ENDBRANCH  91  92
ENDBRANCH  49  91
ENDBRANCH  45  49
ENDBRANCH   1  47
BRANCH   1  95
ATOM     95  CB  LYS A   7      34.830  10.447 -53.851  0.00  0.00    +0.029 C 
BRANCH  95  96
ATOM     96  CG  LYS A   7      35.267  11.919 -53.881  0.00  0.00    +0.000 C 
BRANCH  96  97
ATOM     97  CD  LYS A   7      36.303  12.234 -52.796  0.00  0.00    -0.024 C 
BRANCH  97  98
ATOM     98  CE  LYS A   7      36.809  13.668 -52.852  0.00  0.00    -0.086 C 
BRANCH  98  99
ATOM     99  NZ  LYS A   7      37.885  13.869 -51.842  0.00  0.00    +0.380 N 
ATOM    100  HZ1 LYS A   7      37.508  13.676 -50.892  0.00  0.00    -0.089 HD
ATOM    101  HZ2 LYS A   7      38.223  14.851 -51.889  0.00  0.00    -0.089 HD
ATOM    102  HZ3 LYS A   7      38.672  13.220 -52.042  0.00  0.00    -0.089 HD
ENDBRANCH  98  99
ENDBRANCH  97  98
ENDBRANCH  96  97
ENDBRANCH  95  96
ENDBRANCH   1  95
TORSDOF 37
REMARK  Name = ../refined-set-2016/4idn/4idn_pocket.pdb
REMARK  261 active torsions:
REMARK  status: ('A' for Active; 'I' for Inactive)
REMARK    1  A    between atoms: _1  and  _3
REMARK    2  A    between atoms: _3  and  _4
REMARK    3  A    between atoms: _3  and  _6
REMARK    4  A    between atoms: _9  and  _11
REMARK    5  A    between atoms: _11  and  _12
REMARK    6  A    between atoms: _15  and  _17
REMARK    7  A    between atoms: _17  and  _18
REMARK    8  A    between atoms: _20  and  _22
REMARK    9  A    between atoms: _22  and  _23
REMARK   10  A    between atoms: _26  and  _28
REMARK   11  A    between atoms: _28  and  _29
REMARK   12  A    between atoms: _28  and  _31
REMARK   13  A    between atoms: _31  and  _32
REMARK   14  A    between atoms: _38  and  _40
REMARK   15  A    between atoms: _40  and  _41
REMARK   16  A    between atoms: _40  and  _43
REMARK   17  A    between atoms: _43  and  _44
REMARK   18  A    between atoms: _44  and  _45
REMARK   19  A    between atoms: _45  and  _46
REMARK   20  A    between atoms: _55  and  _57
REMARK   21  A    between atoms: _57  and  _58
REMARK   22  A    between atoms: _57  and  _60
REMARK   23  A    between atoms: _60  and  _61
REMARK   24  A    between atoms: _61  and  _62
REMARK   25  A    between atoms: _62  and  _63
REMARK   26  A    between atoms: _63  and  _64
REMARK   27  A    between atoms: _68  and  _70
REMARK   28  A    between atoms: _70  and  _71
REMARK   29  A    between atoms: _73  and  _75
REMARK   30  A    between atoms: _75  and  _76
REMARK   31  A    between atoms: _75  and  _78
REMARK   32  A    between atoms: _78  and  _79
REMARK   33  A    between atoms: _79  and  _80
REMARK   34  A    between atoms: _80  and  _81
REMARK   35  A    between atoms: _81  and  _82
REMARK   36  A    between atoms: _86  and  _88
REMARK   37  A    between atoms: _88  and  _89
REMARK   38  A    between atoms: _88  and  _91
REMARK   39  A    between atoms: _91  and  _92
REMARK   40  A    between atoms: _94  and  _96
REMARK   41  A    between atoms: _96  and  _97
REMARK   42  A    between atoms: _96  and  _99
REMARK   43  A    between atoms: _99  and  _100
REMARK   44  A    between atoms: _106  and  _108
REMARK   45  A    between atoms: _108  and  _109
REMARK   46  A    between atoms: _108  and  _111
REMARK   47  A    between atoms: _111  and  _112
REMARK   48  A    between atoms: _115  and  _117
REMARK   49  A    between atoms: _117  and  _118
REMARK   50  A    between atoms: _117  and  _120
REMARK   51  A    between atoms: _120  and  _121
REMARK   52  A    between atoms: _121  and  _122
REMARK   53  A    between atoms: _124  and  _126
REMARK   54  A    between atoms: _126  and  _127
REMARK   55  A    between atoms: _126  and  _129
REMARK   56  A    between atoms: _129  and  _130
REMARK   57  A    between atoms: _133  and  _135
REMARK   58  A    between atoms: _135  and  _136
REMARK   59  A    between atoms: _135  and  _138
REMARK   60  A    between atoms: _138  and  _139
REMARK   61  A    between atoms: _145  and  _147
REMARK   62  A    between atoms: _147  and  _148
REMARK   63  A    between atoms: _147  and  _150
REMARK   64  A    between atoms: _150  and  _151
REMARK   65  A    between atoms: _154  and  _156
REMARK   66  A    between atoms: _156  and  _157
REMARK   67  A    between atoms: _156  and  _159
REMARK   68  A    between atoms: _159  and  _160
REMARK   69  A    between atoms: _166  and  _168
REMARK   70  A    between atoms: _168  and  _169
REMARK   71  A    between atoms: _168  and  _171
REMARK   72  A    between atoms: _171  and  _172
REMARK   73  A    between atoms: _174  and  _176
REMARK   74  A    between atoms: _176  and  _177
REMARK   75  A    between atoms: _176  and  _179
REMARK   76  A    between atoms: _179  and  _180
REMARK   77  A    between atoms: _190  and  _192
REMARK   78  A    between atoms: _192  and  _193
REMARK   79  A    between atoms: _192  and  _195
REMARK   80  A    between atoms: _195  and  _196
REMARK   81  A    between atoms: _196  and  _197
REMARK   82  A    between atoms: _197  and  _198
REMARK   83  A    between atoms: _207  and  _209
REMARK   84  A    between atoms: _209  and  _210
REMARK   85  A    between atoms: _212  and  _214
REMARK   86  A    between atoms: _214  and  _215
REMARK   87  A    between atoms: _217  and  _219
REMARK   88  A    between atoms: _219  and  _220
REMARK   89  A    between atoms: _219  and  _222
REMARK   90  A    between atoms: _222  and  _223
REMARK   91  A    between atoms: _225  and  _227
REMARK   92  A    between atoms: _227  and  _228
REMARK   93  A    between atoms: _227  and  _230
REMARK   94  A    between atoms: _230  and  _231
REMARK   95  A    between atoms: _231  and  _232
REMARK   96  A    between atoms: _235  and  _237
REMARK   97  A    between atoms: _237  and  _238
REMARK   98  A    between atoms: _237  and  _240
REMARK   99  A    between atoms: _240  and  _241
REMARK  100  A    between atoms: _241  and  _242
REMARK  101  A    between atoms: _242  and  _243
REMARK  102  A    between atoms: _252  and  _254
REMARK  103  A    between atoms: _254  and  _255
REMARK  104  A    between atoms: _254  and  _257
REMARK  105  A    between atoms: _257  and  _258
REMARK  106  A    between atoms: _258  and  _259
REMARK  107  A    between atoms: _262  and  _264
REMARK  108  A    between atoms: _264  and  _265
REMARK  109  A    between atoms: _264  and  _267
REMARK  110  A    between atoms: _267  and  _268
REMARK  111  A    between atoms: _271  and  _273
REMARK  112  A    between atoms: _273  and  _274
REMARK  113  A    between atoms: _273  and  _276
REMARK  114  A    between atoms: _276  and  _277
REMARK  115  A    between atoms: _280  and  _282
REMARK  116  A    between atoms: _282  and  _283
REMARK  117  A    between atoms: _282  and  _285
REMARK  118  A    between atoms: _285  and  _286
REMARK  119  A    between atoms: _286  and  _287
REMARK  120  A    between atoms: _292  and  _294
REMARK  121  A    between atoms: _294  and  _295
REMARK  122  A    between atoms: _294  and  _297
REMARK  123  A    between atoms: _297  and  _298
REMARK  124  A    between atoms: _301  and  _303
REMARK  125  A    between atoms: _303  and  _304
REMARK  126  A    between atoms: _303  and  _306
REMARK  127  A    between atoms: _306  and  _307
REMARK  128  A    between atoms: _310  and  _312
REMARK  129  A    between atoms: _312  and  _313
REMARK  130  A    between atoms: _312  and  _315
REMARK  131  A    between atoms: _315  and  _316
REMARK  132  A    between atoms: _316  and  _317
REMARK  133  A    between atoms: _322  and  _324
REMARK  134  A    between atoms: _324  and  _325
REMARK  135  A    between atoms: _327  and  _329
REMARK  136  A    between atoms: _329  and  _330
REMARK  137  A    between atoms: _329  and  _332
REMARK  138  A    between atoms: _332  and  _333
REMARK  139  A    between atoms: _336  and  _338
REMARK  140  A    between atoms: _338  and  _339
REMARK  141  A    between atoms: _338  and  _341
REMARK  142  A    between atoms: _341  and  _342
REMARK  143  A    between atoms: _345  and  _347
REMARK  144  A    between atoms: _347  and  _348
REMARK  145  A    between atoms: _347  and  _350
REMARK  146  A    between atoms: _350  and  _351
REMARK  147  A    between atoms: _356  and  _358
REMARK  148  A    between atoms: _358  and  _359
REMARK  149  A    between atoms: _358  and  _361
REMARK  150  A    between atoms: _361  and  _362
REMARK  151  A    between atoms: _365  and  _367
REMARK  152  A    between atoms: _367  and  _368
REMARK  153  A    between atoms: _367  and  _370
REMARK  154  A    between atoms: _370  and  _371
REMARK  155  A    between atoms: _373  and  _375
REMARK  156  A    between atoms: _375  and  _376
REMARK  157  A    between atoms: _375  and  _378
REMARK  158  A    between atoms: _378  and  _379
REMARK  159  A    between atoms: _379  and  _380
REMARK  160  A    between atoms: _385  and  _387
REMARK  161  A    between atoms: _387  and  _388
REMARK  162  A    between atoms: _387  and  _390
REMARK  163  A    between atoms: _390  and  _391
REMARK  164  A    between atoms: _394  and  _396
REMARK  165  A    between atoms: _396  and  _397
REMARK  166  A    between atoms: _396  and  _399
REMARK  167  A    between atoms: _402  and  _404
REMARK  168  A    between atoms: _404  and  _405
REMARK  169  A    between atoms: _404  and  _407
REMARK  170  A    between atoms: _407  and  _408
REMARK  171  A    between atoms: _408  and  _409
REMARK  172  A    between atoms: _409  and  _410
REMARK  173  A    between atoms: _419  and  _421
REMARK  174  A    between atoms: _421  and  _422
REMARK  175  A    between atoms: _421  and  _424
REMARK  176  A    between atoms: _424  and  _425
REMARK  177  A    between atoms: _428  and  _430
REMARK  178  A    between atoms: _430  and  _431
REMARK  179  A    between atoms: _430  and  _433
REMARK  180  A    between atoms: _433  and  _434
REMARK  181  A    between atoms: _444  and  _446
REMARK  182  A    between atoms: _446  and  _447
REMARK  183  A    between atoms: _446  and  _449
REMARK  184  A    between atoms: _449  and  _450
REMARK  185  A    between atoms: _454  and  _455
REMARK  186  A    between atoms: _460  and  _462
REMARK  187  A    between atoms: _462  and  _463
REMARK  188  A    between atoms: _462  and  _465
REMARK  189  A    between atoms: _465  and  _466
REMARK  190  A    between atoms: _472  and  _473
REMARK  191  A    between atoms: _478  and  _480
REMARK  192  A    between atoms: _480  and  _481
REMARK  193  A    between atoms: _483  and  _485
REMARK  194  A    between atoms: _485  and  _486
REMARK  195  A    between atoms: _485  and  _488
REMARK  196  A    between atoms: _488  and  _489
REMARK  197  A    between atoms: _492  and  _494
REMARK  198  A    between atoms: _494  and  _495
REMARK  199  A    between atoms: _494  and  _497
REMARK  200  A    between atoms: _497  and  _498
REMARK  201  A    between atoms: _498  and  _499
REMARK  202  A    between atoms: _499  and  _500
REMARK  203  A    between atoms: _500  and  _501
REMARK  204  A    between atoms: _505  and  _507
REMARK  205  A    between atoms: _507  and  _508
REMARK  206  A    between atoms: _507  and  _510
REMARK  207  A    between atoms: _513  and  _515
REMARK  208  A    between atoms: _515  and  _516
REMARK  209  A    between atoms: _519  and  _521
REMARK  210  A    between atoms: _521  and  _522
REMARK  211  A    between atoms: _521  and  _524
REMARK  212  A    between atoms: _524  and  _525
REMARK  213  A    between atoms: _528  and  _530
REMARK  214  A    between atoms: _530  and  _531
REMARK  215  A    between atoms: _530  and  _533
REMARK  216  A    between atoms: _533  and  _534
REMARK  217  A    between atoms: _540  and  _541
REMARK  218  A    between atoms: _546  and  _548
REMARK  219  A    between atoms: _548  and  _549
REMARK  220  A    between atoms: _548  and  _551
REMARK  221  A    between atoms: _551  and  _552
REMARK  222  A    between atoms: _558  and  _560
REMARK  223  A    between atoms: _560  and  _561
REMARK  224  A    between atoms: _560  and  _563
REMARK  225  A    between atoms: _563  and  _564
REMARK  226  A    between atoms: _567  and  _569
REMARK  227  A    between atoms: _569  and  _570
REMARK  228  A    between atoms: _572  and  _574
REMARK  229  A    between atoms: _574  and  _575
REMARK  230  A    between atoms: _574  and  _577
REMARK  231  A    between atoms: _577  and  _578
REMARK  232  A    between atoms: _581  and  _583
REMARK  233  A    between atoms: _583  and  _584
REMARK  234  A    between atoms: _583  and  _586
REMARK  235  A    between atoms: _586  and  _587
REMARK  236  A    between atoms: _593  and  _595
REMARK  237  A    between atoms: _595  and  _596
REMARK  238  A    between atoms: _595  and  _598
REMARK  239  A    between atoms: _598  and  _599
REMARK  240  A    between atoms: _599  and  _600
REMARK  241  A    between atoms: _605  and  _607
REMARK  242  A    between atoms: _607  and  _608
REMARK  243  A    between atoms: _607  and  _610
REMARK  244  A    between atoms: _610  and  _611
REMARK  245  A    between atoms: _614  and  _616
REMARK  246  A    between atoms: _616  and  _617
REMARK  247  A    between atoms: _616  and  _619
REMARK  248  A    between atoms: _619  and  _620
REMARK  249  A    between atoms: _622  and  _624
REMARK  250  A    between atoms: _624  and  _625
REMARK  251  A    between atoms: _624  and  _627
REMARK  252  A    between atoms: _627  and  _628
REMARK  253  A    between atoms: _634  and  _636
REMARK  254  A    between atoms: _636  and  _637
REMARK  255  A    between atoms: _636  and  _639
REMARK  256  A    between atoms: _639  and  _640
REMARK  257  A    between atoms: _645  and  _646
REMARK  258  A    between atoms: _648  and  _650
REMARK  259  A    between atoms: _650  and  _651
REMARK  260  A    between atoms: _650  and  _653
REMARK  261  A    between atoms: _653  and  _654
REMARK                            x       y       z     vdW  Elec       q    Type
REMARK                         _______ _______ _______ _____ _____    ______ ____
ROOT
ATOM      1  C   PHE A   1      28.157   8.196 -58.108  0.00  0.00    +0.239 C 
ATOM      2  O   PHE A   1      27.039   7.819 -57.735  0.00  0.00    -0.274 OA
ATOM      3  N   ASP A   2      28.797   7.675 -59.152  0.00  0.00    -0.297 N 
ATOM      4  H   ASP A   2      29.826   7.812 -59.221  0.00  0.00    +0.150 HD
ENDROOT
BRANCH   1   5
ATOM      5  CA  PHE A   1      28.927   9.293 -57.351  0.00  0.00    +0.149 C 
BRANCH   5   6
ATOM      6  N   PHE A   1      28.084  10.419 -56.942  0.00  0.00    -0.238 NA
ATOM      7  H   PHE A   1      28.064  10.693 -55.939  0.00  0.00    +0.142 HD
ENDBRANCH   5   6
BRANCH   5   8
ATOM      8  CB  PHE A   1      29.661   8.711 -56.144  0.00  0.00    +0.053 C 
BRANCH   8   9
ATOM      9  CG  PHE A   1      30.401   7.439 -56.443  0.00  0.00    -0.020 A 
ATOM     10  CD2 PHE A   1      30.007   6.245 -55.866  0.00  0.00    -0.004 A 
ATOM     11  CE2 PHE A   1      30.684   5.065 -56.142  0.00  0.00    -0.000 A 
ATOM     12  CZ  PHE A   1      31.779   5.080 -56.995  0.00  0.00    -0.000 A 
ATOM     13  CE1 PHE A   1      32.177   6.265 -57.584  0.00  0.00    -0.000 A 
ATOM     14  CD1 PHE A   1      31.492   7.439 -57.303  0.00  0.00    -0.004 A 
ENDBRANCH   8   9
ENDBRANCH   5   8
ENDBRANCH   1   5
BRANCH   3  15
ATOM     15  CA  ASP A   2      28.126   6.922 -60.202  0.00  0.00    +0.160 C 
BRANCH  15  16
ATOM     16  C   ASP A   2      28.677   5.506 -60.401  0.00  0.00    +0.241 C 
ATOM     17  N   GLY A   3      29.766   5.181 -59.706  0.00  0.00    -0.296 N 
ATOM     18  H   GLY A   3      30.172   5.869 -59.040  0.00  0.00    +0.150 HD
ATOM     19  O   ASP A   2      28.132   4.727 -61.196  0.00  0.00    -0.273 OA
BRANCH  17  20
ATOM     20  CA  GLY A   3      30.395   3.882 -59.864  0.00  0.00    +0.163 C 
BRANCH  20  21
ATOM     21  C   GLY A   3      31.475   3.897 -60.929  0.00  0.00    +0.229 C 
ATOM     22  O   GLY A   3      32.036   2.849 -61.266  0.00  0.00    -0.286 OA
ENDBRANCH  20  21
ENDBRANCH  17  20
ENDBRANCH  15  16
BRANCH  15  23
ATOM     23  CB  ASP A   2      28.276   7.700 -61.517  0.00  0.00    +0.143 C 
BRANCH  23  24
ATOM     24  CG  ASP A   2      26.979   7.805 -62.266  0.00  0.00    +0.367 C 
ATOM     25  OD2 ASP A   2      25.946   7.417 -61.679  0.00  0.00    -0.246 OA
ATOM     26  OD1 ASP A   2      26.986   8.278 -63.422  0.00  0.00    -0.246 OA
ENDBRANCH  23  24
ENDBRANCH  15  23
ENDBRANCH   3  15
TORSDOF 10
REMARK  Name = ../refined-set-2016/4idn/4idn_pocket.pdb
REMARK  261 active torsions:
REMARK  status: ('A' for Active; 'I' for Inactive)
REMARK    1  A    between atoms: _1  and  _3
REMARK    2  A    between atoms: _3  and  _4
REMARK    3  A    between atoms: _3  and  _6
REMARK    4  A    between atoms: _9  and  _11
REMARK    5  A    between atoms: _11  and  _12
REMARK    6  A    between atoms: _15  and  _17
REMARK    7  A    between atoms: _17  and  _18
REMARK    8  A    between atoms: _20  and  _22
REMARK    9  A    between atoms: _22  and  _23
REMARK   10  A    between atoms: _26  and  _28
REMARK   11  A    between atoms: _28  and  _29
REMARK   12  A    between atoms: _28  and  _31
REMARK   13  A    between atoms: _31  and  _32
REMARK   14  A    between atoms: _38  and  _40
REMARK   15  A    between atoms: _40  and  _41
REMARK   16  A    between atoms: _40  and  _43
REMARK   17  A    between atoms: _43  and  _44
REMARK   18  A    between atoms: _44  and  _45
REMARK   19  A    between atoms: _45  and  _46
REMARK   20  A    between atoms: _55  and  _57
REMARK   21  A    between atoms: _57  and  _58
REMARK   22  A    between atoms: _57  and  _60
REMARK   23  A    between atoms: _60  and  _61
REMARK   24  A    between atoms: _61  and  _62
REMARK   25  A    between atoms: _62  and  _63
REMARK   26  A    between atoms: _63  and  _64
REMARK   27  A    between atoms: _68  and  _70
REMARK   28  A    between atoms: _70  and  _71
REMARK   29  A    between atoms: _73  and  _75
REMARK   30  A    between atoms: _75  and  _76
REMARK   31  A    between atoms: _75  and  _78
REMARK   32  A    between atoms: _78  and  _79
REMARK   33  A    between atoms: _79  and  _80
REMARK   34  A    between atoms: _80  and  _81
REMARK   35  A    between atoms: _81  and  _82
REMARK   36  A    between atoms: _86  and  _88
REMARK   37  A    between atoms: _88  and  _89
REMARK   38  A    between atoms: _88  and  _91
REMARK   39  A    between atoms: _91  and  _92
REMARK   40  A    between atoms: _94  and  _96
REMARK   41  A    between atoms: _96  and  _97
REMARK   42  A    between atoms: _96  and  _99
REMARK   43  A    between atoms: _99  and  _100
REMARK   44  A    between atoms: _106  and  _108
REMARK   45  A    between atoms: _108  and  _109
REMARK   46  A    between atoms: _108  and  _111
REMARK   47  A    between atoms: _111  and  _112
REMARK   48  A    between atoms: _115  and  _117
REMARK   49  A    between atoms: _117  and  _118
REMARK   50  A    between atoms: _117  and  _120
REMARK   51  A    between atoms: _120  and  _121
REMARK   52  A    between atoms: _121  and  _122
REMARK   53  A    between atoms: _124  and  _126
REMARK   54  A    between atoms: _126  and  _127
REMARK   55  A    between atoms: _126  and  _129
REMARK   56  A    between atoms: _129  and  _130
REMARK   57  A    between atoms: _133  and  _135
REMARK   58  A    between atoms: _135  and  _136
REMARK   59  A    between atoms: _135  and  _138
REMARK   60  A    between atoms: _138  and  _139
REMARK   61  A    between atoms: _145  and  _147
REMARK   62  A    between atoms: _147  and  _148
REMARK   63  A    between atoms: _147  and  _150
REMARK   64  A    between atoms: _150  and  _151
REMARK   65  A    between atoms: _154  and  _156
REMARK   66  A    between atoms: _156  and  _157
REMARK   67  A    between atoms: _156  and  _159
REMARK   68  A    between atoms: _159  and  _160
REMARK   69  A    between atoms: _166  and  _168
REMARK   70  A    between atoms: _168  and  _169
REMARK   71  A    between atoms: _168  and  _171
REMARK   72  A    between atoms: _171  and  _172
REMARK   73  A    between atoms: _174  and  _176
REMARK   74  A    between atoms: _176  and  _177
REMARK   75  A    between atoms: _176  and  _179
REMARK   76  A    between atoms: _179  and  _180
REMARK   77  A    between atoms: _190  and  _192
REMARK   78  A    between atoms: _192  and  _193
REMARK   79  A    between atoms: _192  and  _195
REMARK   80  A    between atoms: _195  and  _196
REMARK   81  A    between atoms: _196  and  _197
REMARK   82  A    between atoms: _197  and  _198
REMARK   83  A    between atoms: _207  and  _209
REMARK   84  A    between atoms: _209  and  _210
REMARK   85  A    between atoms: _212  and  _214
REMARK   86  A    between atoms: _214  and  _215
REMARK   87  A    between atoms: _217  and  _219
REMARK   88  A    between atoms: _219  and  _220
REMARK   89  A    between atoms: _219  and  _222
REMARK   90  A    between atoms: _222  and  _223
REMARK   91  A    between atoms: _225  and  _227
REMARK   92  A    between atoms: _227  and  _228
REMARK   93  A    between atoms: _227  and  _230
REMARK   94  A    between atoms: _230  and  _231
REMARK   95  A    between atoms: _231  and  _232
REMARK   96  A    between atoms: _235  and  _237
REMARK   97  A    between atoms: _237  and  _238
REMARK   98  A    between atoms: _237  and  _240
REMARK   99  A    between atoms: _240  and  _241
REMARK  100  A    between atoms: _241  and  _242
REMARK  101  A    between atoms: _242  and  _243
REMARK  102  A    between atoms: _252  and  _254
REMARK  103  A    between atoms: _254  and  _255
REMARK  104  A    between atoms: _254  and  _257
REMARK  105  A    between atoms: _257  and  _258
REMARK  106  A    between atoms: _258  and  _259
REMARK  107  A    between atoms: _262  and  _264
REMARK  108  A    between atoms: _264  and  _265
REMARK  109  A    between atoms: _264  and  _267
REMARK  110  A    between atoms: _267  and  _268
REMARK  111  A    between atoms: _271  and  _273
REMARK  112  A    between atoms: _273  and  _274
REMARK  113  A    between atoms: _273  and  _276
REMARK  114  A    between atoms: _276  and  _277
REMARK  115  A    between atoms: _280  and  _282
REMARK  116  A    between atoms: _282  and  _283
REMARK  117  A    between atoms: _282  and  _285
REMARK  118  A    between atoms: _285  and  _286
REMARK  119  A    between atoms: _286  and  _287
REMARK  120  A    between atoms: _292  and  _294
REMARK  121  A    between atoms: _294  and  _295
REMARK  122  A    between atoms: _294  and  _297
REMARK  123  A    between atoms: _297  and  _298
REMARK  124  A    between atoms: _301  and  _303
REMARK  125  A    between atoms: _303  and  _304
REMARK  126  A    between atoms: _303  and  _306
REMARK  127  A    between atoms: _306  and  _307
REMARK  128  A    between atoms: _310  and  _312
REMARK  129  A    between atoms: _312  and  _313
REMARK  130  A    between atoms: _312  and  _315
REMARK  131  A    between atoms: _315  and  _316
REMARK  132  A    between atoms: _316  and  _317
REMARK  133  A    between atoms: _322  and  _324
REMARK  134  A    between atoms: _324  and  _325
REMARK  135  A    between atoms: _327  and  _329
REMARK  136  A    between atoms: _329  and  _330
REMARK  137  A    between atoms: _329  and  _332
REMARK  138  A    between atoms: _332  and  _333
REMARK  139  A    between atoms: _336  and  _338
REMARK  140  A    between atoms: _338  and  _339
REMARK  141  A    between atoms: _338  and  _341
REMARK  142  A    between atoms: _341  and  _342
REMARK  143  A    between atoms: _345  and  _347
REMARK  144  A    between atoms: _347  and  _348
REMARK  145  A    between atoms: _347  and  _350
REMARK  146  A    between atoms: _350  and  _351
REMARK  147  A    between atoms: _356  and  _358
REMARK  148  A    between atoms: _358  and  _359
REMARK  149  A    between atoms: _358  and  _361
REMARK  150  A    between atoms: _361  and  _362
REMARK  151  A    between atoms: _365  and  _367
REMARK  152  A    between atoms: _367  and  _368
REMARK  153  A    between atoms: _367  and  _370
REMARK  154  A    between atoms: _370  and  _371
REMARK  155  A    between atoms: _373  and  _375
REMARK  156  A    between atoms: _375  and  _376
REMARK  157  A    between atoms: _375  and  _378
REMARK  158  A    between atoms: _378  and  _379
REMARK  159  A    between atoms: _379  and  _380
REMARK  160  A    between atoms: _385  and  _387
REMARK  161  A    between atoms: _387  and  _388
REMARK  162  A    between atoms: _387  and  _390
REMARK  163  A    between atoms: _390  and  _391
REMARK  164  A    between atoms: _394  and  _396
REMARK  165  A    between atoms: _396  and  _397
REMARK  166  A    between atoms: _396  and  _399
REMARK  167  A    between atoms: _402  and  _404
REMARK  168  A    between atoms: _404  and  _405
REMARK  169  A    between atoms: _404  and  _407
REMARK  170  A    between atoms: _407  and  _408
REMARK  171  A    between atoms: _408  and  _409
REMARK  172  A    between atoms: _409  and  _410
REMARK  173  A    between atoms: _419  and  _421
REMARK  174  A    between atoms: _421  and  _422
REMARK  175  A    between atoms: _421  and  _424
REMARK  176  A    between atoms: _424  and  _425
REMARK  177  A    between atoms: _428  and  _430
REMARK  178  A    between atoms: _430  and  _431
REMARK  179  A    between atoms: _430  and  _433
REMARK  180  A    between atoms: _433  and  _434
REMARK  181  A    between atoms: _444  and  _446
REMARK  182  A    between atoms: _446  and  _447
REMARK  183  A    between atoms: _446  and  _449
REMARK  184  A    between atoms: _449  and  _450
REMARK  185  A    between atoms: _454  and  _455
REMARK  186  A    between atoms: _460  and  _462
REMARK  187  A    between atoms: _462  and  _463
REMARK  188  A    between atoms: _462  and  _465
REMARK  189  A    between atoms: _465  and  _466
REMARK  190  A    between atoms: _472  and  _473
REMARK  191  A    between atoms: _478  and  _480
REMARK  192  A    between atoms: _480  and  _481
REMARK  193  A    between atoms: _483  and  _485
REMARK  194  A    between atoms: _485  and  _486
REMARK  195  A    between atoms: _485  and  _488
REMARK  196  A    between atoms: _488  and  _489
REMARK  197  A    between atoms: _492  and  _494
REMARK  198  A    between atoms: _494  and  _495
REMARK  199  A    between atoms: _494  and  _497
REMARK  200  A    between atoms: _497  and  _498
REMARK  201  A    between atoms: _498  and  _499
REMARK  202  A    between atoms: _499  and  _500
REMARK  203  A    between atoms: _500  and  _501
REMARK  204  A    between atoms: _505  and  _507
REMARK  205  A    between atoms: _507  and  _508
REMARK  206  A    between atoms: _507  and  _510
REMARK  207  A    between atoms: _513  and  _515
REMARK  208  A    between atoms: _515  and  _516
REMARK  209  A    between atoms: _519  and  _521
REMARK  210  A    between atoms: _521  and  _522
REMARK  211  A    between atoms: _521  and  _524
REMARK  212  A    between atoms: _524  and  _525
REMARK  213  A    between atoms: _528  and  _530
REMARK  214  A    between atoms: _530  and  _531
REMARK  215  A    between atoms: _530  and  _533
REMARK  216  A    between atoms: _533  and  _534
REMARK  217  A    between atoms: _540  and  _541
REMARK  218  A    between atoms: _546  and  _548
REMARK  219  A    between atoms: _548  and  _549
REMARK  220  A    between atoms: _548  and  _551
REMARK  221  A    between atoms: _551  and  _552
REMARK  222  A    between atoms: _558  and  _560
REMARK  223  A    between atoms: _560  and  _561
REMARK  224  A    between atoms: _560  and  _563
REMARK  225  A    between atoms: _563  and  _564
REMARK  226  A    between atoms: _567  and  _569
REMARK  227  A    between atoms: _569  and  _570
REMARK  228  A    between atoms: _572  and  _574
REMARK  229  A    between atoms: _574  and  _575
REMARK  230  A    between atoms: _574  and  _577
REMARK  231  A    between atoms: _577  and  _578
REMARK  232  A    between atoms: _581  and  _583
REMARK  233  A    between atoms: _583  and  _584
REMARK  234  A    between atoms: _583  and  _586
REMARK  235  A    between atoms: _586  and  _587
REMARK  236  A    between atoms: _593  and  _595
REMARK  237  A    between atoms: _595  and  _596
REMARK  238  A    between atoms: _595  and  _598
REMARK  239  A    between atoms: _598  and  _599
REMARK  240  A    between atoms: _599  and  _600
REMARK  241  A    between atoms: _605  and  _607
REMARK  242  A    between atoms: _607  and  _608
REMARK  243  A    between atoms: _607  and  _610
REMARK  244  A    between atoms: _610  and  _611
REMARK  245  A    between atoms: _614  and  _616
REMARK  246  A    between atoms: _616  and  _617
REMARK  247  A    between atoms: _616  and  _619
REMARK  248  A    between atoms: _619  and  _620
REMARK  249  A    between atoms: _622  and  _624
REMARK  250  A    between atoms: _624  and  _625
REMARK  251  A    between atoms: _624  and  _627
REMARK  252  A    between atoms: _627  and  _628
REMARK  253  A    between atoms: _634  and  _636
REMARK  254  A    between atoms: _636  and  _637
REMARK  255  A    between atoms: _636  and  _639
REMARK  256  A    between atoms: _639  and  _640
REMARK  257  A    between atoms: _645  and  _646
REMARK  258  A    between atoms: _648  and  _650
REMARK  259  A    between atoms: _650  and  _651
REMARK  260  A    between atoms: _650  and  _653
REMARK  261  A    between atoms: _653  and  _654
REMARK                            x       y       z     vdW  Elec       q    Type
REMARK                         _______ _______ _______ _____ _____    ______ ____
ROOT
ATOM      1  CA  ILE A   1      37.455   5.039 -57.182  0.00  0.00    +0.133 C 
ENDROOT
BRANCH   1   2
ATOM      2  N   ILE A   1      37.242   6.090 -58.187  0.00  0.00    -0.239 NA
ATOM      3  H   ILE A   1      37.658   5.973 -59.133  0.00  0.00    +0.142 HD
ENDBRANCH   1   2
BRANCH   1   4
ATOM      4  C   ILE A   1      38.953   4.852 -56.913  0.00  0.00    +0.224 C 
ATOM      5  O   ILE A   1      39.749   4.864 -57.860  0.00  0.00    -0.287 OA
ENDBRANCH   1   4
BRANCH   1   6
ATOM      6  CB  ILE A   1      36.847   3.715 -57.678  0.00  0.00    +0.023 C 
ATOM      7  CG2 ILE A   1      37.067   2.600 -56.671  0.00  0.00    +0.002 C 
BRANCH   6   8
ATOM      8  CG1 ILE A   1      35.354   3.900 -57.958  0.00  0.00    +0.002 C 
ATOM      9  CD1 ILE A   1      34.654   2.647 -58.440  0.00  0.00    +0.000 C 
ENDBRANCH   6   8
ENDBRANCH   1   6
TORSDOF 4
REMARK  Name = ../refined-set-2016/4idn/4idn_pocket.pdb
REMARK  261 active torsions:
REMARK  status: ('A' for Active; 'I' for Inactive)
REMARK    1  A    between atoms: _1  and  _3
REMARK    2  A    between atoms: _3  and  _4
REMARK    3  A    between atoms: _3  and  _6
REMARK    4  A    between atoms: _9  and  _11
REMARK    5  A    between atoms: _11  and  _12
REMARK    6  A    between atoms: _15  and  _17
REMARK    7  A    between atoms: _17  and  _18
REMARK    8  A    between atoms: _20  and  _22
REMARK    9  A    between atoms: _22  and  _23
REMARK   10  A    between atoms: _26  and  _28
REMARK   11  A    between atoms: _28  and  _29
REMARK   12  A    between atoms: _28  and  _31
REMARK   13  A    between atoms: _31  and  _32
REMARK   14  A    between atoms: _38  and  _40
REMARK   15  A    between atoms: _40  and  _41
REMARK   16  A    between atoms: _40  and  _43
REMARK   17  A    between atoms: _43  and  _44
REMARK   18  A    between atoms: _44  and  _45
REMARK   19  A    between atoms: _45  and  _46
REMARK   20  A    between atoms: _55  and  _57
REMARK   21  A    between atoms: _57  and  _58
REMARK   22  A    between atoms: _57  and  _60
REMARK   23  A    between atoms: _60  and  _61
REMARK   24  A    between atoms: _61  and  _62
REMARK   25  A    between atoms: _62  and  _63
REMARK   26  A    between atoms: _63  and  _64
REMARK   27  A    between atoms: _68  and  _70
REMARK   28  A    between atoms: _70  and  _71
REMARK   29  A    between atoms: _73  and  _75
REMARK   30  A    between atoms: _75  and  _76
REMARK   31  A    between atoms: _75  and  _78
REMARK   32  A    between atoms: _78  and  _79
REMARK   33  A    between atoms: _79  and  _80
REMARK   34  A    between atoms: _80  and  _81
REMARK   35  A    between atoms: _81  and  _82
REMARK   36  A    between atoms: _86  and  _88
REMARK   37  A    between atoms: _88  and  _89
REMARK   38  A    between atoms: _88  and  _91
REMARK   39  A    between atoms: _91  and  _92
REMARK   40  A    between atoms: _94  and  _96
REMARK   41  A    between atoms: _96  and  _97
REMARK   42  A    between atoms: _96  and  _99
REMARK   43  A    between atoms: _99  and  _100
REMARK   44  A    between atoms: _106  and  _108
REMARK   45  A    between atoms: _108  and  _109
REMARK   46  A    between atoms: _108  and  _111
REMARK   47  A    between atoms: _111  and  _112
REMARK   48  A    between atoms: _115  and  _117
REMARK   49  A    between atoms: _117  and  _118
REMARK   50  A    between atoms: _117  and  _120
REMARK   51  A    between atoms: _120  and  _121
REMARK   52  A    between atoms: _121  and  _122
REMARK   53  A    between atoms: _124  and  _126
REMARK   54  A    between atoms: _126  and  _127
REMARK   55  A    between atoms: _126  and  _129
REMARK   56  A    between atoms: _129  and  _130
REMARK   57  A    between atoms: _133  and  _135
REMARK   58  A    between atoms: _135  and  _136
REMARK   59  A    between atoms: _135  and  _138
REMARK   60  A    between atoms: _138  and  _139
REMARK   61  A    between atoms: _145  and  _147
REMARK   62  A    between atoms: _147  and  _148
REMARK   63  A    between atoms: _147  and  _150
REMARK   64  A    between atoms: _150  and  _151
REMARK   65  A    between atoms: _154  and  _156
REMARK   66  A    between atoms: _156  and  _157
REMARK   67  A    between atoms: _156  and  _159
REMARK   68  A    between atoms: _159  and  _160
REMARK   69  A    between atoms: _166  and  _168
REMARK   70  A    between atoms: _168  and  _169
REMARK   71  A    between atoms: _168  and  _171
REMARK   72  A    between atoms: _171  and  _172
REMARK   73  A    between atoms: _174  and  _176
REMARK   74  A    between atoms: _176  and  _177
REMARK   75  A    between atoms: _176  and  _179
REMARK   76  A    between atoms: _179  and  _180
REMARK   77  A    between atoms: _190  and  _192
REMARK   78  A    between atoms: _192  and  _193
REMARK   79  A    between atoms: _192  and  _195
REMARK   80  A    between atoms: _195  and  _196
REMARK   81  A    between atoms: _196  and  _197
REMARK   82  A    between atoms: _197  and  _198
REMARK   83  A    between atoms: _207  and  _209
REMARK   84  A    between atoms: _209  and  _210
REMARK   85  A    between atoms: _212  and  _214
REMARK   86  A    between atoms: _214  and  _215
REMARK   87  A    between atoms: _217  and  _219
REMARK   88  A    between atoms: _219  and  _220
REMARK   89  A    between atoms: _219  and  _222
REMARK   90  A    between atoms: _222  and  _223
REMARK   91  A    between atoms: _225  and  _227
REMARK   92  A    between atoms: _227  and  _228
REMARK   93  A    between atoms: _227  and  _230
REMARK   94  A    between atoms: _230  and  _231
REMARK   95  A    between atoms: _231  and  _232
REMARK   96  A    between atoms: _235  and  _237
REMARK   97  A    between atoms: _237  and  _238
REMARK   98  A    between atoms: _237  and  _240
REMARK   99  A    between atoms: _240  and  _241
REMARK  100  A    between atoms: _241  and  _242
REMARK  101  A    between atoms: _242  and  _243
REMARK  102  A    between atoms: _252  and  _254
REMARK  103  A    between atoms: _254  and  _255
REMARK  104  A    between atoms: _254  and  _257
REMARK  105  A    between atoms: _257  and  _258
REMARK  106  A    between atoms: _258  and  _259
REMARK  107  A    between atoms: _262  and  _264
REMARK  108  A    between atoms: _264  and  _265
REMARK  109  A    between atoms: _264  and  _267
REMARK  110  A    between atoms: _267  and  _268
REMARK  111  A    between atoms: _271  and  _273
REMARK  112  A    between atoms: _273  and  _274
REMARK  113  A    between atoms: _273  and  _276
REMARK  114  A    between atoms: _276  and  _277
REMARK  115  A    between atoms: _280  and  _282
REMARK  116  A    between atoms: _282  and  _283
REMARK  117  A    between atoms: _282  and  _285
REMARK  118  A    between atoms: _285  and  _286
REMARK  119  A    between atoms: _286  and  _287
REMARK  120  A    between atoms: _292  and  _294
REMARK  121  A    between atoms: _294  and  _295
REMARK  122  A    between atoms: _294  and  _297
REMARK  123  A    between atoms: _297  and  _298
REMARK  124  A    between atoms: _301  and  _303
REMARK  125  A    between atoms: _303  and  _304
REMARK  126  A    between atoms: _303  and  _306
REMARK  127  A    between atoms: _306  and  _307
REMARK  128  A    between atoms: _310  and  _312
REMARK  129  A    between atoms: _312  and  _313
REMARK  130  A    between atoms: _312  and  _315
REMARK  131  A    between atoms: _315  and  _316
REMARK  132  A    between atoms: _316  and  _317
REMARK  133  A    between atoms: _322  and  _324
REMARK  134  A    between atoms: _324  and  _325
REMARK  135  A    between atoms: _327  and  _329
REMARK  136  A    between atoms: _329  and  _330
REMARK  137  A    between atoms: _329  and  _332
REMARK  138  A    between atoms: _332  and  _333
REMARK  139  A    between atoms: _336  and  _338
REMARK  140  A    between atoms: _338  and  _339
REMARK  141  A    between atoms: _338  and  _341
REMARK  142  A    between atoms: _341  and  _342
REMARK  143  A    between atoms: _345  and  _347
REMARK  144  A    between atoms: _347  and  _348
REMARK  145  A    between atoms: _347  and  _350
REMARK  146  A    between atoms: _350  and  _351
REMARK  147  A    between atoms: _356  and  _358
REMARK  148  A    between atoms: _358  and  _359
REMARK  149  A    between atoms: _358  and  _361
REMARK  150  A    between atoms: _361  and  _362
REMARK  151  A    between atoms: _365  and  _367
REMARK  152  A    between atoms: _367  and  _368
REMARK  153  A    between atoms: _367  and  _370
REMARK  154  A    between atoms: _370  and  _371
REMARK  155  A    between atoms: _373  and  _375
REMARK  156  A    between atoms: _375  and  _376
REMARK  157  A    between atoms: _375  and  _378
REMARK  158  A    between atoms: _378  and  _379
REMARK  159  A    between atoms: _379  and  _380
REMARK  160  A    between atoms: _385  and  _387
REMARK  161  A    between atoms: _387  and  _388
REMARK  162  A    between atoms: _387  and  _390
REMARK  163  A    between atoms: _390  and  _391
REMARK  164  A    between atoms: _394  and  _396
REMARK  165  A    between atoms: _396  and  _397
REMARK  166  A    between atoms: _396  and  _399
REMARK  167  A    between atoms: _402  and  _404
REMARK  168  A    between atoms: _404  and  _405
REMARK  169  A    between atoms: _404  and  _407
REMARK  170  A    between atoms: _407  and  _408
REMARK  171  A    between atoms: _408  and  _409
REMARK  172  A    between atoms: _409  and  _410
REMARK  173  A    between atoms: _419  and  _421
REMARK  174  A    between atoms: _421  and  _422
REMARK  175  A    between atoms: _421  and  _424
REMARK  176  A    between atoms: _424  and  _425
REMARK  177  A    between atoms: _428  and  _430
REMARK  178  A    between atoms: _430  and  _431
REMARK  179  A    between atoms: _430  and  _433
REMARK  180  A    between atoms: _433  and  _434
REMARK  181  A    between atoms: _444  and  _446
REMARK  182  A    between atoms: _446  and  _447
REMARK  183  A    between atoms: _446  and  _449
REMARK  184  A    between atoms: _449  and  _450
REMARK  185  A    between atoms: _454  and  _455
REMARK  186  A    between atoms: _460  and  _462
REMARK  187  A    between atoms: _462  and  _463
REMARK  188  A    between atoms: _462  and  _465
REMARK  189  A    between atoms: _465  and  _466
REMARK  190  A    between atoms: _472  and  _473
REMARK  191  A    between atoms: _478  and  _480
REMARK  192  A    between atoms: _480  and  _481
REMARK  193  A    between atoms: _483  and  _485
REMARK  194  A    between atoms: _485  and  _486
REMARK  195  A    between atoms: _485  and  _488
REMARK  196  A    between atoms: _488  and  _489
REMARK  197  A    between atoms: _492  and  _494
REMARK  198  A    between atoms: _494  and  _495
REMARK  199  A    between atoms: _494  and  _497
REMARK  200  A    between atoms: _497  and  _498
REMARK  201  A    between atoms: _498  and  _499
REMARK  202  A    between atoms: _499  and  _500
REMARK  203  A    between atoms: _500  and  _501
REMARK  204  A    between atoms: _505  and  _507
REMARK  205  A    between atoms: _507  and  _508
REMARK  206  A    between atoms: _507  and  _510
REMARK  207  A    between atoms: _513  and  _515
REMARK  208  A    between atoms: _515  and  _516
REMARK  209  A    between atoms: _519  and  _521
REMARK  210  A    between atoms: _521  and  _522
REMARK  211  A    between atoms: _521  and  _524
REMARK  212  A    between atoms: _524  and  _525
REMARK  213  A    between atoms: _528  and  _530
REMARK  214  A    between atoms: _530  and  _531
REMARK  215  A    between atoms: _530  and  _533
REMARK  216  A    between atoms: _533  and  _534
REMARK  217  A    between atoms: _540  and  _541
REMARK  218  A    between atoms: _546  and  _548
REMARK  219  A    between atoms: _548  and  _549
REMARK  220  A    between atoms: _548  and  _551
REMARK  221  A    between atoms: _551  and  _552
REMARK  222  A    between atoms: _558  and  _560
REMARK  223  A    between atoms: _560  and  _561
REMARK  224  A    between atoms: _560  and  _563
REMARK  225  A    between atoms: _563  and  _564
REMARK  226  A    between atoms: _567  and  _569
REMARK  227  A    between atoms: _569  and  _570
REMARK  228  A    between atoms: _572  and  _574
REMARK  229  A    between atoms: _574  and  _575
REMARK  230  A    between atoms: _574  and  _577
REMARK  231  A    between atoms: _577  and  _578
REMARK  232  A    between atoms: _581  and  _583
REMARK  233  A    between atoms: _583  and  _584
REMARK  234  A    between atoms: _583  and  _586
REMARK  235  A    between atoms: _586  and  _587
REMARK  236  A    between atoms: _593  and  _595
REMARK  237  A    between atoms: _595  and  _596
REMARK  238  A    between atoms: _595  and  _598
REMARK  239  A    between atoms: _598  and  _599
REMARK  240  A    between atoms: _599  and  _600
REMARK  241  A    between atoms: _605  and  _607
REMARK  242  A    between atoms: _607  and  _608
REMARK  243  A    between atoms: _607  and  _610
REMARK  244  A    between atoms: _610  and  _611
REMARK  245  A    between atoms: _614  and  _616
REMARK  246  A    between atoms: _616  and  _617
REMARK  247  A    between atoms: _616  and  _619
REMARK  248  A    between atoms: _619  and  _620
REMARK  249  A    between atoms: _622  and  _624
REMARK  250  A    between atoms: _624  and  _625
REMARK  251  A    between atoms: _624  and  _627
REMARK  252  A    between atoms: _627  and  _628
REMARK  253  A    between atoms: _634  and  _636
REMARK  254  A    between atoms: _636  and  _637
REMARK  255  A    between atoms: _636  and  _639
REMARK  256  A    between atoms: _639  and  _640
REMARK  257  A    between atoms: _645  and  _646
REMARK  258  A    between atoms: _648  and  _650
REMARK  259  A    between atoms: _650  and  _651
REMARK  260  A    between atoms: _650  and  _653
REMARK  261  A    between atoms: _653  and  _654
REMARK                            x       y       z     vdW  Elec       q    Type
REMARK                         _______ _______ _______ _____ _____    ______ ____
ROOT
ATOM      1  CB  PHE A   1      39.577   0.310 -54.172  0.00  0.00    +0.051 C 
ENDROOT
BRANCH   1   2
ATOM      2  CG  PHE A   1      38.219  -0.355 -54.168  0.00  0.00    -0.020 A 
ATOM      3  CD2 PHE A   1      37.675  -0.848 -52.990  0.00  0.00    -0.004 A 
ATOM      4  CE2 PHE A   1      36.414  -1.463 -52.986  0.00  0.00    -0.000 A 
ATOM      5  CZ  PHE A   1      35.699  -1.580 -54.164  0.00  0.00    -0.000 A 
ATOM      6  CE1 PHE A   1      36.232  -1.098 -55.343  0.00  0.00    -0.000 A 
ATOM      7  CD1 PHE A   1      37.484  -0.486 -55.343  0.00  0.00    -0.004 A 
ENDBRANCH   1   2
BRANCH   1   8
ATOM      8  CA  PHE A   1      40.739  -0.657 -54.398  0.00  0.00    +0.137 C 
BRANCH   8   9
ATOM      9  N   PHE A   1      42.013   0.065 -54.466  0.00  0.00    -0.239 NA
ATOM     10  H   PHE A   1      42.013   1.105 -54.445  0.00  0.00    +0.142 HD
ENDBRANCH   8   9
BRANCH   8  11
ATOM     11  C   PHE A   1      40.516  -1.442 -55.687  0.00  0.00    +0.224 C 
ATOM     12  O   PHE A   1      40.272  -2.650 -55.655  0.00  0.00    -0.287 OA
ENDBRANCH   8  11
ENDBRANCH   1   8
TORSDOF 4
REMARK  Name = ../refined-set-2016/4idn/4idn_pocket.pdb
REMARK  261 active torsions:
REMARK  status: ('A' for Active; 'I' for Inactive)
REMARK    1  A    between atoms: _1  and  _3
REMARK    2  A    between atoms: _3  and  _4
REMARK    3  A    between atoms: _3  and  _6
REMARK    4  A    between atoms: _9  and  _11
REMARK    5  A    between atoms: _11  and  _12
REMARK    6  A    between atoms: _15  and  _17
REMARK    7  A    between atoms: _17  and  _18
REMARK    8  A    between atoms: _20  and  _22
REMARK    9  A    between atoms: _22  and  _23
REMARK   10  A    between atoms: _26  and  _28
REMARK   11  A    between atoms: _28  and  _29
REMARK   12  A    between atoms: _28  and  _31
REMARK   13  A    between atoms: _31  and  _32
REMARK   14  A    between atoms: _38  and  _40
REMARK   15  A    between atoms: _40  and  _41
REMARK   16  A    between atoms: _40  and  _43
REMARK   17  A    between atoms: _43  and  _44
REMARK   18  A    between atoms: _44  and  _45
REMARK   19  A    between atoms: _45  and  _46
REMARK   20  A    between atoms: _55  and  _57
REMARK   21  A    between atoms: _57  and  _58
REMARK   22  A    between atoms: _57  and  _60
REMARK   23  A    between atoms: _60  and  _61
REMARK   24  A    between atoms: _61  and  _62
REMARK   25  A    between atoms: _62  and  _63
REMARK   26  A    between atoms: _63  and  _64
REMARK   27  A    between atoms: _68  and  _70
REMARK   28  A    between atoms: _70  and  _71
REMARK   29  A    between atoms: _73  and  _75
REMARK   30  A    between atoms: _75  and  _76
REMARK   31  A    between atoms: _75  and  _78
REMARK   32  A    between atoms: _78  and  _79
REMARK   33  A    between atoms: _79  and  _80
REMARK   34  A    between atoms: _80  and  _81
REMARK   35  A    between atoms: _81  and  _82
REMARK   36  A    between atoms: _86  and  _88
REMARK   37  A    between atoms: _88  and  _89
REMARK   38  A    between atoms: _88  and  _91
REMARK   39  A    between atoms: _91  and  _92
REMARK   40  A    between atoms: _94  and  _96
REMARK   41  A    between atoms: _96  and  _97
REMARK   42  A    between atoms: _96  and  _99
REMARK   43  A    between atoms: _99  and  _100
REMARK   44  A    between atoms: _106  and  _108
REMARK   45  A    between atoms: _108  and  _109
REMARK   46  A    between atoms: _108  and  _111
REMARK   47  A    between atoms: _111  and  _112
REMARK   48  A    between atoms: _115  and  _117
REMARK   49  A    between atoms: _117  and  _118
REMARK   50  A    between atoms: _117  and  _120
REMARK   51  A    between atoms: _120  and  _121
REMARK   52  A    between atoms: _121  and  _122
REMARK   53  A    between atoms: _124  and  _126
REMARK   54  A    between atoms: _126  and  _127
REMARK   55  A    between atoms: _126  and  _129
REMARK   56  A    between atoms: _129  and  _130
REMARK   57  A    between atoms: _133  and  _135
REMARK   58  A    between atoms: _135  and  _136
REMARK   59  A    between atoms: _135  and  _138
REMARK   60  A    between atoms: _138  and  _139
REMARK   61  A    between atoms: _145  and  _147
REMARK   62  A    between atoms: _147  and  _148
REMARK   63  A    between atoms: _147  and  _150
REMARK   64  A    between atoms: _150  and  _151
REMARK   65  A    between atoms: _154  and  _156
REMARK   66  A    between atoms: _156  and  _157
REMARK   67  A    between atoms: _156  and  _159
REMARK   68  A    between atoms: _159  and  _160
REMARK   69  A    between atoms: _166  and  _168
REMARK   70  A    between atoms: _168  and  _169
REMARK   71  A    between atoms: _168  and  _171
REMARK   72  A    between atoms: _171  and  _172
REMARK   73  A    between atoms: _174  and  _176
REMARK   74  A    between atoms: _176  and  _177
REMARK   75  A    between atoms: _176  and  _179
REMARK   76  A    between atoms: _179  and  _180
REMARK   77  A    between atoms: _190  and  _192
REMARK   78  A    between atoms: _192  and  _193
REMARK   79  A    between atoms: _192  and  _195
REMARK   80  A    between atoms: _195  and  _196
REMARK   81  A    between atoms: _196  and  _197
REMARK   82  A    between atoms: _197  and  _198
REMARK   83  A    between atoms: _207  and  _209
REMARK   84  A    between atoms: _209  and  _210
REMARK   85  A    between atoms: _212  and  _214
REMARK   86  A    between atoms: _214  and  _215
REMARK   87  A    between atoms: _217  and  _219
REMARK   88  A    between atoms: _219  and  _220
REMARK   89  A    between atoms: _219  and  _222
REMARK   90  A    between atoms: _222  and  _223
REMARK   91  A    between atoms: _225  and  _227
REMARK   92  A    between atoms: _227  and  _228
REMARK   93  A    between atoms: _227  and  _230
REMARK   94  A    between atoms: _230  and  _231
REMARK   95  A    between atoms: _231  and  _232
REMARK   96  A    between atoms: _235  and  _237
REMARK   97  A    between atoms: _237  and  _238
REMARK   98  A    between atoms: _237  and  _240
REMARK   99  A    between atoms: _240  and  _241
REMARK  100  A    between atoms: _241  and  _242
REMARK  101  A    between atoms: _242  and  _243
REMARK  102  A    between atoms: _252  and  _254
REMARK  103  A    between atoms: _254  and  _255
REMARK  104  A    between atoms: _254  and  _257
REMARK  105  A    between atoms: _257  and  _258
REMARK  106  A    between atoms: _258  and  _259
REMARK  107  A    between atoms: _262  and  _264
REMARK  108  A    between atoms: _264  and  _265
REMARK  109  A    between atoms: _264  and  _267
REMARK  110  A    between atoms: _267  and  _268
REMARK  111  A    between atoms: _271  and  _273
REMARK  112  A    between atoms: _273  and  _274
REMARK  113  A    between atoms: _273  and  _276
REMARK  114  A    between atoms: _276  and  _277
REMARK  115  A    between atoms: _280  and  _282
REMARK  116  A    between atoms: _282  and  _283
REMARK  117  A    between atoms: _282  and  _285
REMARK  118  A    between atoms: _285  and  _286
REMARK  119  A    between atoms: _286  and  _287
REMARK  120  A    between atoms: _292  and  _294
REMARK  121  A    between atoms: _294  and  _295
REMARK  122  A    between atoms: _294  and  _297
REMARK  123  A    between atoms: _297  and  _298
REMARK  124  A    between atoms: _301  and  _303
REMARK  125  A    between atoms: _303  and  _304
REMARK  126  A    between atoms: _303  and  _306
REMARK  127  A    between atoms: _306  and  _307
REMARK  128  A    between atoms: _310  and  _312
REMARK  129  A    between atoms: _312  and  _313
REMARK  130  A    between atoms: _312  and  _315
REMARK  131  A    between atoms: _315  and  _316
REMARK  132  A    between atoms: _316  and  _317
REMARK  133  A    between atoms: _322  and  _324
REMARK  134  A    between atoms: _324  and  _325
REMARK  135  A    between atoms: _327  and  _329
REMARK  136  A    between atoms: _329  and  _330
REMARK  137  A    between atoms: _329  and  _332
REMARK  138  A    between atoms: _332  and  _333
REMARK  139  A    between atoms: _336  and  _338
REMARK  140  A    between atoms: _338  and  _339
REMARK  141  A    between atoms: _338  and  _341
REMARK  142  A    between atoms: _341  and  _342
REMARK  143  A    between atoms: _345  and  _347
REMARK  144  A    between atoms: _347  and  _348
REMARK  145  A    between atoms: _347  and  _350
REMARK  146  A    between atoms: _350  and  _351
REMARK  147  A    between atoms: _356  and  _358
REMARK  148  A    between atoms: _358  and  _359
REMARK  149  A    between atoms: _358  and  _361
REMARK  150  A    between atoms: _361  and  _362
REMARK  151  A    between atoms: _365  and  _367
REMARK  152  A    between atoms: _367  and  _368
REMARK  153  A    between atoms: _367  and  _370
REMARK  154  A    between atoms: _370  and  _371
REMARK  155  A    between atoms: _373  and  _375
REMARK  156  A    between atoms: _375  and  _376
REMARK  157  A    between atoms: _375  and  _378
REMARK  158  A    between atoms: _378  and  _379
REMARK  159  A    between atoms: _379  and  _380
REMARK  160  A    between atoms: _385  and  _387
REMARK  161  A    between atoms: _387  and  _388
REMARK  162  A    between atoms: _387  and  _390
REMARK  163  A    between atoms: _390  and  _391
REMARK  164  A    between atoms: _394  and  _396
REMARK  165  A    between atoms: _396  and  _397
REMARK  166  A    between atoms: _396  and  _399
REMARK  167  A    between atoms: _402  and  _404
REMARK  168  A    between atoms: _404  and  _405
REMARK  169  A    between atoms: _404  and  _407
REMARK  170  A    between atoms: _407  and  _408
REMARK  171  A    between atoms: _408  and  _409
REMARK  172  A    between atoms: _409  and  _410
REMARK  173  A    between atoms: _419  and  _421
REMARK  174  A    between atoms: _421  and  _422
REMARK  175  A    between atoms: _421  and  _424
REMARK  176  A    between atoms: _424  and  _425
REMARK  177  A    between atoms: _428  and  _430
REMARK  178  A    between atoms: _430  and  _431
REMARK  179  A    between atoms: _430  and  _433
REMARK  180  A    between atoms: _433  and  _434
REMARK  181  A    between atoms: _444  and  _446
REMARK  182  A    between atoms: _446  and  _447
REMARK  183  A    between atoms: _446  and  _449
REMARK  184  A    between atoms: _449  and  _450
REMARK  185  A    between atoms: _454  and  _455
REMARK  186  A    between atoms: _460  and  _462
REMARK  187  A    between atoms: _462  and  _463
REMARK  188  A    between atoms: _462  and  _465
REMARK  189  A    between atoms: _465  and  _466
REMARK  190  A    between atoms: _472  and  _473
REMARK  191  A    between atoms: _478  and  _480
REMARK  192  A    between atoms: _480  and  _481
REMARK  193  A    between atoms: _483  and  _485
REMARK  194  A    between atoms: _485  and  _486
REMARK  195  A    between atoms: _485  and  _488
REMARK  196  A    between atoms: _488  and  _489
REMARK  197  A    between atoms: _492  and  _494
REMARK  198  A    between atoms: _494  and  _495
REMARK  199  A    between atoms: _494  and  _497
REMARK  200  A    between atoms: _497  and  _498
REMARK  201  A    between atoms: _498  and  _499
REMARK  202  A    between atoms: _499  and  _500
REMARK  203  A    between atoms: _500  and  _501
REMARK  204  A    between atoms: _505  and  _507
REMARK  205  A    between atoms: _507  and  _508
REMARK  206  A    between atoms: _507  and  _510
REMARK  207  A    between atoms: _513  and  _515
REMARK  208  A    between atoms: _515  and  _516
REMARK  209  A    between atoms: _519  and  _521
REMARK  210  A    between atoms: _521  and  _522
REMARK  211  A    between atoms: _521  and  _524
REMARK  212  A    between atoms: _524  and  _525
REMARK  213  A    between atoms: _528  and  _530
REMARK  214  A    between atoms: _530  and  _531
REMARK  215  A    between atoms: _530  and  _533
REMARK  216  A    between atoms: _533  and  _534
REMARK  217  A    between atoms: _540  and  _541
REMARK  218  A    between atoms: _546  and  _548
REMARK  219  A    between atoms: _548  and  _549
REMARK  220  A    between atoms: _548  and  _551
REMARK  221  A    between atoms: _551  and  _552
REMARK  222  A    between atoms: _558  and  _560
REMARK  223  A    between atoms: _560  and  _561
REMARK  224  A    between atoms: _560  and  _563
REMARK  225  A    between atoms: _563  and  _564
REMARK  226  A    between atoms: _567  and  _569
REMARK  227  A    between atoms: _569  and  _570
REMARK  228  A    between atoms: _572  and  _574
REMARK  229  A    between atoms: _574  and  _575
REMARK  230  A    between atoms: _574  and  _577
REMARK  231  A    between atoms: _577  and  _578
REMARK  232  A    between atoms: _581  and  _583
REMARK  233  A    between atoms: _583  and  _584
REMARK  234  A    between atoms: _583  and  _586
REMARK  235  A    between atoms: _586  and  _587
REMARK  236  A    between atoms: _593  and  _595
REMARK  237  A    between atoms: _595  and  _596
REMARK  238  A    between atoms: _595  and  _598
REMARK  239  A    between atoms: _598  and  _599
REMARK  240  A    between atoms: _599  and  _600
REMARK  241  A    between atoms: _605  and  _607
REMARK  242  A    between atoms: _607  and  _608
REMARK  243  A    between atoms: _607  and  _610
REMARK  244  A    between atoms: _610  and  _611
REMARK  245  A    between atoms: _614  and  _616
REMARK  246  A    between atoms: _616  and  _617
REMARK  247  A    between atoms: _616  and  _619
REMARK  248  A    between atoms: _619  and  _620
REMARK  249  A    between atoms: _622  and  _624
REMARK  250  A    between atoms: _624  and  _625
REMARK  251  A    between atoms: _624  and  _627
REMARK  252  A    between atoms: _627  and  _628
REMARK  253  A    between atoms: _634  and  _636
REMARK  254  A    between atoms: _636  and  _637
REMARK  255  A    between atoms: _636  and  _639
REMARK  256  A    between atoms: _639  and  _640
REMARK  257  A    between atoms: _645  and  _646
REMARK  258  A    between atoms: _648  and  _650
REMARK  259  A    between atoms: _650  and  _651
REMARK  260  A    between atoms: _650  and  _653
REMARK  261  A    between atoms: _653  and  _654
REMARK                            x       y       z     vdW  Elec       q    Type
REMARK                         _______ _______ _______ _____ _____    ______ ____
ROOT
ATOM      1  CB  GLN A   1      29.136   3.360 -40.786  0.00  0.00    +0.035 C 
ENDROOT
BRANCH   1   2
ATOM      2  CA  GLN A   1      28.823   4.477 -39.774  0.00  0.00    +0.134 C 
BRANCH   2   3
ATOM      3  N   GLN A   1      29.567   4.287 -38.513  0.00  0.00    -0.239 NA
ATOM      4  H   GLN A   1      30.167   5.068 -38.178  0.00  0.00    +0.142 HD
ENDBRANCH   2   3
BRANCH   2   5
ATOM      5  C   GLN A   1      27.307   4.654 -39.676  0.00  0.00    +0.224 C 
ATOM      6  O   GLN A   1      26.716   5.411 -40.452  0.00  0.00    -0.287 OA
ENDBRANCH   2   5
ENDBRANCH   1   2
BRANCH   1   7
ATOM      7  CG  GLN A   1      30.532   3.449 -41.410  0.00  0.00    +0.087 C 
BRANCH   7   8
ATOM      8  CD  GLN A   1      30.840   2.271 -42.317  0.00  0.00    +0.219 C 
ATOM      9  NE2 GLN A   1      31.860   1.511 -41.960  0.00  0.00    -0.329 N 
ATOM     10 HE21 GLN A   1      32.403   1.738 -41.103  0.00  0.00    +0.145 HD
ATOM     11 HE22 GLN A   1      32.120   0.685 -42.536  0.00  0.00    +0.145 HD
ATOM     12  OE1 GLN A   1      30.165   2.045 -43.323  0.00  0.00    -0.275 OA
ENDBRANCH   7   8
ENDBRANCH   1   7
TORSDOF 5
REMARK  Name = ../refined-set-2016/4idn/4idn_pocket.pdb
REMARK  261 active torsions:
REMARK  status: ('A' for Active; 'I' for Inactive)
REMARK    1  A    between atoms: _1  and  _3
REMARK    2  A    between atoms: _3  and  _4
REMARK    3  A    between atoms: _3  and  _6
REMARK    4  A    between atoms: _9  and  _11
REMARK    5  A    between atoms: _11  and  _12
REMARK    6  A    between atoms: _15  and  _17
REMARK    7  A    between atoms: _17  and  _18
REMARK    8  A    between atoms: _20  and  _22
REMARK    9  A    between atoms: _22  and  _23
REMARK   10  A    between atoms: _26  and  _28
REMARK   11  A    between atoms: _28  and  _29
REMARK   12  A    between atoms: _28  and  _31
REMARK   13  A    between atoms: _31  and  _32
REMARK   14  A    between atoms: _38  and  _40
REMARK   15  A    between atoms: _40  and  _41
REMARK   16  A    between atoms: _40  and  _43
REMARK   17  A    between atoms: _43  and  _44
REMARK   18  A    between atoms: _44  and  _45
REMARK   19  A    between atoms: _45  and  _46
REMARK   20  A    between atoms: _55  and  _57
REMARK   21  A    between atoms: _57  and  _58
REMARK   22  A    between atoms: _57  and  _60
REMARK   23  A    between atoms: _60  and  _61
REMARK   24  A    between atoms: _61  and  _62
REMARK   25  A    between atoms: _62  and  _63
REMARK   26  A    between atoms: _63  and  _64
REMARK   27  A    between atoms: _68  and  _70
REMARK   28  A    between atoms: _70  and  _71
REMARK   29  A    between atoms: _73  and  _75
REMARK   30  A    between atoms: _75  and  _76
REMARK   31  A    between atoms: _75  and  _78
REMARK   32  A    between atoms: _78  and  _79
REMARK   33  A    between atoms: _79  and  _80
REMARK   34  A    between atoms: _80  and  _81
REMARK   35  A    between atoms: _81  and  _82
REMARK   36  A    between atoms: _86  and  _88
REMARK   37  A    between atoms: _88  and  _89
REMARK   38  A    between atoms: _88  and  _91
REMARK   39  A    between atoms: _91  and  _92
REMARK   40  A    between atoms: _94  and  _96
REMARK   41  A    between atoms: _96  and  _97
REMARK   42  A    between atoms: _96  and  _99
REMARK   43  A    between atoms: _99  and  _100
REMARK   44  A    between atoms: _106  and  _108
REMARK   45  A    between atoms: _108  and  _109
REMARK   46  A    between atoms: _108  and  _111
REMARK   47  A    between atoms: _111  and  _112
REMARK   48  A    between atoms: _115  and  _117
REMARK   49  A    between atoms: _117  and  _118
REMARK   50  A    between atoms: _117  and  _120
REMARK   51  A    between atoms: _120  and  _121
REMARK   52  A    between atoms: _121  and  _122
REMARK   53  A    between atoms: _124  and  _126
REMARK   54  A    between atoms: _126  and  _127
REMARK   55  A    between atoms: _126  and  _129
REMARK   56  A    between atoms: _129  and  _130
REMARK   57  A    between atoms: _133  and  _135
REMARK   58  A    between atoms: _135  and  _136
REMARK   59  A    between atoms: _135  and  _138
REMARK   60  A    between atoms: _138  and  _139
REMARK   61  A    between atoms: _145  and  _147
REMARK   62  A    between atoms: _147  and  _148
REMARK   63  A    between atoms: _147  and  _150
REMARK   64  A    between atoms: _150  and  _151
REMARK   65  A    between atoms: _154  and  _156
REMARK   66  A    between atoms: _156  and  _157
REMARK   67  A    between atoms: _156  and  _159
REMARK   68  A    between atoms: _159  and  _160
REMARK   69  A    between atoms: _166  and  _168
REMARK   70  A    between atoms: _168  and  _169
REMARK   71  A    between atoms: _168  and  _171
REMARK   72  A    between atoms: _171  and  _172
REMARK   73  A    between atoms: _174  and  _176
REMARK   74  A    between atoms: _176  and  _177
REMARK   75  A    between atoms: _176  and  _179
REMARK   76  A    between atoms: _179  and  _180
REMARK   77  A    between atoms: _190  and  _192
REMARK   78  A    between atoms: _192  and  _193
REMARK   79  A    between atoms: _192  and  _195
REMARK   80  A    between atoms: _195  and  _196
REMARK   81  A    between atoms: _196  and  _197
REMARK   82  A    between atoms: _197  and  _198
REMARK   83  A    between atoms: _207  and  _209
REMARK   84  A    between atoms: _209  and  _210
REMARK   85  A    between atoms: _212  and  _214
REMARK   86  A    between atoms: _214  and  _215
REMARK   87  A    between atoms: _217  and  _219
REMARK   88  A    between atoms: _219  and  _220
REMARK   89  A    between atoms: _219  and  _222
REMARK   90  A    between atoms: _222  and  _223
REMARK   91  A    between atoms: _225  and  _227
REMARK   92  A    between atoms: _227  and  _228
REMARK   93  A    between atoms: _227  and  _230
REMARK   94  A    between atoms: _230  and  _231
REMARK   95  A    between atoms: _231  and  _232
REMARK   96  A    between atoms: _235  and  _237
REMARK   97  A    between atoms: _237  and  _238
REMARK   98  A    between atoms: _237  and  _240
REMARK   99  A    between atoms: _240  and  _241
REMARK  100  A    between atoms: _241  and  _242
REMARK  101  A    between atoms: _242  and  _243
REMARK  102  A    between atoms: _252  and  _254
REMARK  103  A    between atoms: _254  and  _255
REMARK  104  A    between atoms: _254  and  _257
REMARK  105  A    between atoms: _257  and  _258
REMARK  106  A    between atoms: _258  and  _259
REMARK  107  A    between atoms: _262  and  _264
REMARK  108  A    between atoms: _264  and  _265
REMARK  109  A    between atoms: _264  and  _267
REMARK  110  A    between atoms: _267  and  _268
REMARK  111  A    between atoms: _271  and  _273
REMARK  112  A    between atoms: _273  and  _274
REMARK  113  A    between atoms: _273  and  _276
REMARK  114  A    between atoms: _276  and  _277
REMARK  115  A    between atoms: _280  and  _282
REMARK  116  A    between atoms: _282  and  _283
REMARK  117  A    between atoms: _282  and  _285
REMARK  118  A    between atoms: _285  and  _286
REMARK  119  A    between atoms: _286  and  _287
REMARK  120  A    between atoms: _292  and  _294
REMARK  121  A    between atoms: _294  and  _295
REMARK  122  A    between atoms: _294  and  _297
REMARK  123  A    between atoms: _297  and  _298
REMARK  124  A    between atoms: _301  and  _303
REMARK  125  A    between atoms: _303  and  _304
REMARK  126  A    between atoms: _303  and  _306
REMARK  127  A    between atoms: _306  and  _307
REMARK  128  A    between atoms: _310  and  _312
REMARK  129  A    between atoms: _312  and  _313
REMARK  130  A    between atoms: _312  and  _315
REMARK  131  A    between atoms: _315  and  _316
REMARK  132  A    between atoms: _316  and  _317
REMARK  133  A    between atoms: _322  and  _324
REMARK  134  A    between atoms: _324  and  _325
REMARK  135  A    between atoms: _327  and  _329
REMARK  136  A    between atoms: _329  and  _330
REMARK  137  A    between atoms: _329  and  _332
REMARK  138  A    between atoms: _332  and  _333
REMARK  139  A    between atoms: _336  and  _338
REMARK  140  A    between atoms: _338  and  _339
REMARK  141  A    between atoms: _338  and  _341
REMARK  142  A    between atoms: _341  and  _342
REMARK  143  A    between atoms: _345  and  _347
REMARK  144  A    between atoms: _347  and  _348
REMARK  145  A    between atoms: _347  and  _350
REMARK  146  A    between atoms: _350  and  _351
REMARK  147  A    between atoms: _356  and  _358
REMARK  148  A    between atoms: _358  and  _359
REMARK  149  A    between atoms: _358  and  _361
REMARK  150  A    between atoms: _361  and  _362
REMARK  151  A    between atoms: _365  and  _367
REMARK  152  A    between atoms: _367  and  _368
REMARK  153  A    between atoms: _367  and  _370
REMARK  154  A    between atoms: _370  and  _371
REMARK  155  A    between atoms: _373  and  _375
REMARK  156  A    between atoms: _375  and  _376
REMARK  157  A    between atoms: _375  and  _378
REMARK  158  A    between atoms: _378  and  _379
REMARK  159  A    between atoms: _379  and  _380
REMARK  160  A    between atoms: _385  and  _387
REMARK  161  A    between atoms: _387  and  _388
REMARK  162  A    between atoms: _387  and  _390
REMARK  163  A    between atoms: _390  and  _391
REMARK  164  A    between atoms: _394  and  _396
REMARK  165  A    between atoms: _396  and  _397
REMARK  166  A    between atoms: _396  and  _399
REMARK  167  A    between atoms: _402  and  _404
REMARK  168  A    between atoms: _404  and  _405
REMARK  169  A    between atoms: _404  and  _407
REMARK  170  A    between atoms: _407  and  _408
REMARK  171  A    between atoms: _408  and  _409
REMARK  172  A    between atoms: _409  and  _410
REMARK  173  A    between atoms: _419  and  _421
REMARK  174  A    between atoms: _421  and  _422
REMARK  175  A    between atoms: _421  and  _424
REMARK  176  A    between atoms: _424  and  _425
REMARK  177  A    between atoms: _428  and  _430
REMARK  178  A    between atoms: _430  and  _431
REMARK  179  A    between atoms: _430  and  _433
REMARK  180  A    between atoms: _433  and  _434
REMARK  181  A    between atoms: _444  and  _446
REMARK  182  A    between atoms: _446  and  _447
REMARK  183  A    between atoms: _446  and  _449
REMARK  184  A    between atoms: _449  and  _450
REMARK  185  A    between atoms: _454  and  _455
REMARK  186  A    between atoms: _460  and  _462
REMARK  187  A    between atoms: _462  and  _463
REMARK  188  A    between atoms: _462  and  _465
REMARK  189  A    between atoms: _465  and  _466
REMARK  190  A    between atoms: _472  and  _473
REMARK  191  A    between atoms: _478  and  _480
REMARK  192  A    between atoms: _480  and  _481
REMARK  193  A    between atoms: _483  and  _485
REMARK  194  A    between atoms: _485  and  _486
REMARK  195  A    between atoms: _485  and  _488
REMARK  196  A    between atoms: _488  and  _489
REMARK  197  A    between atoms: _492  and  _494
REMARK  198  A    between atoms: _494  and  _495
REMARK  199  A    between atoms: _494  and  _497
REMARK  200  A    between atoms: _497  and  _498
REMARK  201  A    between atoms: _498  and  _499
REMARK  202  A    between atoms: _499  and  _500
REMARK  203  A    between atoms: _500  and  _501
REMARK  204  A    between atoms: _505  and  _507
REMARK  205  A    between atoms: _507  and  _508
REMARK  206  A    between atoms: _507  and  _510
REMARK  207  A    between atoms: _513  and  _515
REMARK  208  A    between atoms: _515  and  _516
REMARK  209  A    between atoms: _519  and  _521
REMARK  210  A    between atoms: _521  and  _522
REMARK  211  A    between atoms: _521  and  _524
REMARK  212  A    between atoms: _524  and  _525
REMARK  213  A    between atoms: _528  and  _530
REMARK  214  A    between atoms: _530  and  _531
REMARK  215  A    between atoms: _530  and  _533
REMARK  216  A    between atoms: _533  and  _534
REMARK  217  A    between atoms: _540  and  _541
REMARK  218  A    between atoms: _546  and  _548
REMARK  219  A    between atoms: _548  and  _549
REMARK  220  A    between atoms: _548  and  _551
REMARK  221  A    between atoms: _551  and  _552
REMARK  222  A    between atoms: _558  and  _560
REMARK  223  A    between atoms: _560  and  _561
REMARK  224  A    between atoms: _560  and  _563
REMARK  225  A    between atoms: _563  and  _564
REMARK  226  A    between atoms: _567  and  _569
REMARK  227  A    between atoms: _569  and  _570
REMARK  228  A    between atoms: _572  and  _574
REMARK  229  A    between atoms: _574  and  _575
REMARK  230  A    between atoms: _574  and  _577
REMARK  231  A    between atoms: _577  and  _578
REMARK  232  A    between atoms: _581  and  _583
REMARK  233  A    between atoms: _583  and  _584
REMARK  234  A    between atoms: _583  and  _586
REMARK  235  A    between atoms: _586  and  _587
REMARK  236  A    between atoms: _593  and  _595
REMARK  237  A    between atoms: _595  and  _596
REMARK  238  A    between atoms: _595  and  _598
REMARK  239  A    between atoms: _598  and  _599
REMARK  240  A    between atoms: _599  and  _600
REMARK  241  A    between atoms: _605  and  _607
REMARK  242  A    between atoms: _607  and  _608
REMARK  243  A    between atoms: _607  and  _610
REMARK  244  A    between atoms: _610  and  _611
REMARK  245  A    between atoms: _614  and  _616
REMARK  246  A    between atoms: _616  and  _617
REMARK  247  A    between atoms: _616  and  _619
REMARK  248  A    between atoms: _619  and  _620
REMARK  249  A    between atoms: _622  and  _624
REMARK  250  A    between atoms: _624  and  _625
REMARK  251  A    between atoms: _624  and  _627
REMARK  252  A    between atoms: _627  and  _628
REMARK  253  A    between atoms: _634  and  _636
REMARK  254  A    between atoms: _636  and  _637
REMARK  255  A    between atoms: _636  and  _639
REMARK  256  A    between atoms: _639  and  _640
REMARK  257  A    between atoms: _645  and  _646
REMARK  258  A    between atoms: _648  and  _650
REMARK  259  A    between atoms: _650  and  _651
REMARK  260  A    between atoms: _650  and  _653
REMARK  261  A    between atoms: _653  and  _654
REMARK                            x       y       z     vdW  Elec       q    Type
REMARK                         _______ _______ _______ _____ _____    ______ ____
ROOT
ATOM      1  CA  ASP A   1      32.371   7.956 -40.168  0.00  0.00    +0.144 C 
ENDROOT
BRANCH   1   2
ATOM      2  N   ASP A   1      32.354   8.188 -38.724  0.00  0.00    -0.239 NA
ATOM      3  H   ASP A   1      32.897   8.987 -38.339  0.00  0.00    +0.142 HD
ENDBRANCH   1   2
BRANCH   1   4
ATOM      4  C   ASP A   1      30.980   8.043 -40.794  0.00  0.00    +0.225 C 
ATOM      5  O   ASP A   1      30.635   7.253 -41.672  0.00  0.00    -0.287 OA
ENDBRANCH   1   4
BRANCH   1   6
ATOM      6  CB  ASP A   1      33.032   6.606 -40.505  0.00  0.00    +0.139 C 
BRANCH   6   7
ATOM      7  CG  ASP A   1      34.457   6.485 -39.947  0.00  0.00    +0.367 C 
ATOM      8  OD2 ASP A   1      35.010   7.502 -39.472  0.00  0.00    -0.246 OA
ATOM      9  OD1 ASP A   1      35.030   5.371 -39.984  0.00  0.00    -0.246 OA
ENDBRANCH   6   7
ENDBRANCH   1   6
TORSDOF 4
REMARK  Name = ../refined-set-2016/4idn/4idn_pocket.pdb
REMARK  261 active torsions:
REMARK  status: ('A' for Active; 'I' for Inactive)
REMARK    1  A    between atoms: _1  and  _3
REMARK    2  A    between atoms: _3  and  _4
REMARK    3  A    between atoms: _3  and  _6
REMARK    4  A    between atoms: _9  and  _11
REMARK    5  A    between atoms: _11  and  _12
REMARK    6  A    between atoms: _15  and  _17
REMARK    7  A    between atoms: _17  and  _18
REMARK    8  A    between atoms: _20  and  _22
REMARK    9  A    between atoms: _22  and  _23
REMARK   10  A    between atoms: _26  and  _28
REMARK   11  A    between atoms: _28  and  _29
REMARK   12  A    between atoms: _28  and  _31
REMARK   13  A    between atoms: _31  and  _32
REMARK   14  A    between atoms: _38  and  _40
REMARK   15  A    between atoms: _40  and  _41
REMARK   16  A    between atoms: _40  and  _43
REMARK   17  A    between atoms: _43  and  _44
REMARK   18  A    between atoms: _44  and  _45
REMARK   19  A    between atoms: _45  and  _46
REMARK   20  A    between atoms: _55  and  _57
REMARK   21  A    between atoms: _57  and  _58
REMARK   22  A    between atoms: _57  and  _60
REMARK   23  A    between atoms: _60  and  _61
REMARK   24  A    between atoms: _61  and  _62
REMARK   25  A    between atoms: _62  and  _63
REMARK   26  A    between atoms: _63  and  _64
REMARK   27  A    between atoms: _68  and  _70
REMARK   28  A    between atoms: _70  and  _71
REMARK   29  A    between atoms: _73  and  _75
REMARK   30  A    between atoms: _75  and  _76
REMARK   31  A    between atoms: _75  and  _78
REMARK   32  A    between atoms: _78  and  _79
REMARK   33  A    between atoms: _79  and  _80
REMARK   34  A    between atoms: _80  and  _81
REMARK   35  A    between atoms: _81  and  _82
REMARK   36  A    between atoms: _86  and  _88
REMARK   37  A    between atoms: _88  and  _89
REMARK   38  A    between atoms: _88  and  _91
REMARK   39  A    between atoms: _91  and  _92
REMARK   40  A    between atoms: _94  and  _96
REMARK   41  A    between atoms: _96  and  _97
REMARK   42  A    between atoms: _96  and  _99
REMARK   43  A    between atoms: _99  and  _100
REMARK   44  A    between atoms: _106  and  _108
REMARK   45  A    between atoms: _108  and  _109
REMARK   46  A    between atoms: _108  and  _111
REMARK   47  A    between atoms: _111  and  _112
REMARK   48  A    between atoms: _115  and  _117
REMARK   49  A    between atoms: _117  and  _118
REMARK   50  A    between atoms: _117  and  _120
REMARK   51  A    between atoms: _120  and  _121
REMARK   52  A    between atoms: _121  and  _122
REMARK   53  A    between atoms: _124  and  _126
REMARK   54  A    between atoms: _126  and  _127
REMARK   55  A    between atoms: _126  and  _129
REMARK   56  A    between atoms: _129  and  _130
REMARK   57  A    between atoms: _133  and  _135
REMARK   58  A    between atoms: _135  and  _136
REMARK   59  A    between atoms: _135  and  _138
REMARK   60  A    between atoms: _138  and  _139
REMARK   61  A    between atoms: _145  and  _147
REMARK   62  A    between atoms: _147  and  _148
REMARK   63  A    between atoms: _147  and  _150
REMARK   64  A    between atoms: _150  and  _151
REMARK   65  A    between atoms: _154  and  _156
REMARK   66  A    between atoms: _156  and  _157
REMARK   67  A    between atoms: _156  and  _159
REMARK   68  A    between atoms: _159  and  _160
REMARK   69  A    between atoms: _166  and  _168
REMARK   70  A    between atoms: _168  and  _169
REMARK   71  A    between atoms: _168  and  _171
REMARK   72  A    between atoms: _171  and  _172
REMARK   73  A    between atoms: _174  and  _176
REMARK   74  A    between atoms: _176  and  _177
REMARK   75  A    between atoms: _176  and  _179
REMARK   76  A    between atoms: _179  and  _180
REMARK   77  A    between atoms: _190  and  _192
REMARK   78  A    between atoms: _192  and  _193
REMARK   79  A    between atoms: _192  and  _195
REMARK   80  A    between atoms: _195  and  _196
REMARK   81  A    between atoms: _196  and  _197
REMARK   82  A    between atoms: _197  and  _198
REMARK   83  A    between atoms: _207  and  _209
REMARK   84  A    between atoms: _209  and  _210
REMARK   85  A    between atoms: _212  and  _214
REMARK   86  A    between atoms: _214  and  _215
REMARK   87  A    between atoms: _217  and  _219
REMARK   88  A    between atoms: _219  and  _220
REMARK   89  A    between atoms: _219  and  _222
REMARK   90  A    between atoms: _222  and  _223
REMARK   91  A    between atoms: _225  and  _227
REMARK   92  A    between atoms: _227  and  _228
REMARK   93  A    between atoms: _227  and  _230
REMARK   94  A    between atoms: _230  and  _231
REMARK   95  A    between atoms: _231  and  _232
REMARK   96  A    between atoms: _235  and  _237
REMARK   97  A    between atoms: _237  and  _238
REMARK   98  A    between atoms: _237  and  _240
REMARK   99  A    between atoms: _240  and  _241
REMARK  100  A    between atoms: _241  and  _242
REMARK  101  A    between atoms: _242  and  _243
REMARK  102  A    between atoms: _252  and  _254
REMARK  103  A    between atoms: _254  and  _255
REMARK  104  A    between atoms: _254  and  _257
REMARK  105  A    between atoms: _257  and  _258
REMARK  106  A    between atoms: _258  and  _259
REMARK  107  A    between atoms: _262  and  _264
REMARK  108  A    between atoms: _264  and  _265
REMARK  109  A    between atoms: _264  and  _267
REMARK  110  A    between atoms: _267  and  _268
REMARK  111  A    between atoms: _271  and  _273
REMARK  112  A    between atoms: _273  and  _274
REMARK  113  A    between atoms: _273  and  _276
REMARK  114  A    between atoms: _276  and  _277
REMARK  115  A    between atoms: _280  and  _282
REMARK  116  A    between atoms: _282  and  _283
REMARK  117  A    between atoms: _282  and  _285
REMARK  118  A    between atoms: _285  and  _286
REMARK  119  A    between atoms: _286  and  _287
REMARK  120  A    between atoms: _292  and  _294
REMARK  121  A    between atoms: _294  and  _295
REMARK  122  A    between atoms: _294  and  _297
REMARK  123  A    between atoms: _297  and  _298
REMARK  124  A    between atoms: _301  and  _303
REMARK  125  A    between atoms: _303  and  _304
REMARK  126  A    between atoms: _303  and  _306
REMARK  127  A    between atoms: _306  and  _307
REMARK  128  A    between atoms: _310  and  _312
REMARK  129  A    between atoms: _312  and  _313
REMARK  130  A    between atoms: _312  and  _315
REMARK  131  A    between atoms: _315  and  _316
REMARK  132  A    between atoms: _316  and  _317
REMARK  133  A    between atoms: _322  and  _324
REMARK  134  A    between atoms: _324  and  _325
REMARK  135  A    between atoms: _327  and  _329
REMARK  136  A    between atoms: _329  and  _330
REMARK  137  A    between atoms: _329  and  _332
REMARK  138  A    between atoms: _332  and  _333
REMARK  139  A    between atoms: _336  and  _338
REMARK  140  A    between atoms: _338  and  _339
REMARK  141  A    between atoms: _338  and  _341
REMARK  142  A    between atoms: _341  and  _342
REMARK  143  A    between atoms: _345  and  _347
REMARK  144  A    between atoms: _347  and  _348
REMARK  145  A    between atoms: _347  and  _350
REMARK  146  A    between atoms: _350  and  _351
REMARK  147  A    between atoms: _356  and  _358
REMARK  148  A    between atoms: _358  and  _359
REMARK  149  A    between atoms: _358  and  _361
REMARK  150  A    between atoms: _361  and  _362
REMARK  151  A    between atoms: _365  and  _367
REMARK  152  A    between atoms: _367  and  _368
REMARK  153  A    between atoms: _367  and  _370
REMARK  154  A    between atoms: _370  and  _371
REMARK  155  A    between atoms: _373  and  _375
REMARK  156  A    between atoms: _375  and  _376
REMARK  157  A    between atoms: _375  and  _378
REMARK  158  A    between atoms: _378  and  _379
REMARK  159  A    between atoms: _379  and  _380
REMARK  160  A    between atoms: _385  and  _387
REMARK  161  A    between atoms: _387  and  _388
REMARK  162  A    between atoms: _387  and  _390
REMARK  163  A    between atoms: _390  and  _391
REMARK  164  A    between atoms: _394  and  _396
REMARK  165  A    between atoms: _396  and  _397
REMARK  166  A    between atoms: _396  and  _399
REMARK  167  A    between atoms: _402  and  _404
REMARK  168  A    between atoms: _404  and  _405
REMARK  169  A    between atoms: _404  and  _407
REMARK  170  A    between atoms: _407  and  _408
REMARK  171  A    between atoms: _408  and  _409
REMARK  172  A    between atoms: _409  and  _410
REMARK  173  A    between atoms: _419  and  _421
REMARK  174  A    between atoms: _421  and  _422
REMARK  175  A    between atoms: _421  and  _424
REMARK  176  A    between atoms: _424  and  _425
REMARK  177  A    between atoms: _428  and  _430
REMARK  178  A    between atoms: _430  and  _431
REMARK  179  A    between atoms: _430  and  _433
REMARK  180  A    between atoms: _433  and  _434
REMARK  181  A    between atoms: _444  and  _446
REMARK  182  A    between atoms: _446  and  _447
REMARK  183  A    between atoms: _446  and  _449
REMARK  184  A    between atoms: _449  and  _450
REMARK  185  A    between atoms: _454  and  _455
REMARK  186  A    between atoms: _460  and  _462
REMARK  187  A    between atoms: _462  and  _463
REMARK  188  A    between atoms: _462  and  _465
REMARK  189  A    between atoms: _465  and  _466
REMARK  190  A    between atoms: _472  and  _473
REMARK  191  A    between atoms: _478  and  _480
REMARK  192  A    between atoms: _480  and  _481
REMARK  193  A    between atoms: _483  and  _485
REMARK  194  A    between atoms: _485  and  _486
REMARK  195  A    between atoms: _485  and  _488
REMARK  196  A    between atoms: _488  and  _489
REMARK  197  A    between atoms: _492  and  _494
REMARK  198  A    between atoms: _494  and  _495
REMARK  199  A    between atoms: _494  and  _497
REMARK  200  A    between atoms: _497  and  _498
REMARK  201  A    between atoms: _498  and  _499
REMARK  202  A    between atoms: _499  and  _500
REMARK  203  A    between atoms: _500  and  _501
REMARK  204  A    between atoms: _505  and  _507
REMARK  205  A    between atoms: _507  and  _508
REMARK  206  A    between atoms: _507  and  _510
REMARK  207  A    between atoms: _513  and  _515
REMARK  208  A    between atoms: _515  and  _516
REMARK  209  A    between atoms: _519  and  _521
REMARK  210  A    between atoms: _521  and  _522
REMARK  211  A    between atoms: _521  and  _524
REMARK  212  A    between atoms: _524  and  _525
REMARK  213  A    between atoms: _528  and  _530
REMARK  214  A    between atoms: _530  and  _531
REMARK  215  A    between atoms: _530  and  _533
REMARK  216  A    between atoms: _533  and  _534
REMARK  217  A    between atoms: _540  and  _541
REMARK  218  A    between atoms: _546  and  _548
REMARK  219  A    between atoms: _548  and  _549
REMARK  220  A    between atoms: _548  and  _551
REMARK  221  A    between atoms: _551  and  _552
REMARK  222  A    between atoms: _558  and  _560
REMARK  223  A    between atoms: _560  and  _561
REMARK  224  A    between atoms: _560  and  _563
REMARK  225  A    between atoms: _563  and  _564
REMARK  226  A    between atoms: _567  and  _569
REMARK  227  A    between atoms: _569  and  _570
REMARK  228  A    between atoms: _572  and  _574
REMARK  229  A    between atoms: _574  and  _575
REMARK  230  A    between atoms: _574  and  _577
REMARK  231  A    between atoms: _577  and  _578
REMARK  232  A    between atoms: _581  and  _583
REMARK  233  A    between atoms: _583  and  _584
REMARK  234  A    between atoms: _583  and  _586
REMARK  235  A    between atoms: _586  and  _587
REMARK  236  A    between atoms: _593  and  _595
REMARK  237  A    between atoms: _595  and  _596
REMARK  238  A    between atoms: _595  and  _598
REMARK  239  A    between atoms: _598  and  _599
REMARK  240  A    between atoms: _599  and  _600
REMARK  241  A    between atoms: _605  and  _607
REMARK  242  A    between atoms: _607  and  _608
REMARK  243  A    between atoms: _607  and  _610
REMARK  244  A    between atoms: _610  and  _611
REMARK  245  A    between atoms: _614  and  _616
REMARK  246  A    between atoms: _616  and  _617
REMARK  247  A    between atoms: _616  and  _619
REMARK  248  A    between atoms: _619  and  _620
REMARK  249  A    between atoms: _622  and  _624
REMARK  250  A    between atoms: _624  and  _625
REMARK  251  A    between atoms: _624  and  _627
REMARK  252  A    between atoms: _627  and  _628
REMARK  253  A    between atoms: _634  and  _636
REMARK  254  A    between atoms: _636  and  _637
REMARK  255  A    between atoms: _636  and  _639
REMARK  256  A    between atoms: _639  and  _640
REMARK  257  A    between atoms: _645  and  _646
REMARK  258  A    between atoms: _648  and  _650
REMARK  259  A    between atoms: _650  and  _651
REMARK  260  A    between atoms: _650  and  _653
REMARK  261  A    between atoms: _653  and  _654
REMARK                            x       y       z     vdW  Elec       q    Type
REMARK                         _______ _______ _______ _____ _____    ______ ____
ROOT
ATOM      1  C   SER A   1      27.675  10.018 -45.567  0.00  0.00    +0.241 C 
ATOM      2  N   PHE A   2      26.655  10.520 -44.880  0.00  0.00    -0.298 N 
ATOM      3  H   PHE A   2      26.657  10.499 -43.840  0.00  0.00    +0.150 HD
ATOM      4  O   SER A   1      27.787  10.175 -46.786  0.00  0.00    -0.274 OA
ENDROOT
BRANCH   1   5
ATOM      5  CA  SER A   1      28.729   9.226 -44.793  0.00  0.00    +0.174 C 
BRANCH   5   6
ATOM      6  N   SER A   1      28.441   9.010 -43.374  0.00  0.00    -0.236 NA
ATOM      7  H   SER A   1      27.682   8.359 -43.088  0.00  0.00    +0.142 HD
ENDBRANCH   5   6
BRANCH   5   8
ATOM      8  CB  SER A   1      28.982   7.883 -45.479  0.00  0.00    +0.163 C 
BRANCH   8   9
ATOM      9  OG  SER A   1      30.019   7.188 -44.815  0.00  0.00    -0.380 OA
ATOM     10  H   SER A   1      30.175   6.321 -45.266  0.00  0.00    +0.211 HD
ENDBRANCH   8   9
ENDBRANCH   5   8
ENDBRANCH   1   5
BRANCH   2  11
ATOM     11  CA  PHE A   2      25.533  11.101 -45.605  0.00  0.00    +0.141 C 
BRANCH  11  12
ATOM     12  C   PHE A   2      25.151  12.503 -45.122  0.00  0.00    +0.227 C 
ATOM     13  O   PHE A   2      23.996  12.739 -44.745  0.00  0.00    -0.286 OA
ENDBRANCH  11  12
BRANCH  11  14
ATOM     14  CB  PHE A   2      24.328  10.137 -45.552  0.00  0.00    +0.054 C 
BRANCH  14  15
ATOM     15  CG  PHE A   2      24.712   8.681 -45.738  0.00  0.00    -0.020 A 
ATOM     16  CD2 PHE A   2      24.609   7.776 -44.686  0.00  0.00    -0.004 A 
ATOM     17  CE2 PHE A   2      24.973   6.440 -44.849  0.00  0.00    -0.000 A 
ATOM     18  CZ  PHE A   2      25.445   5.997 -46.080  0.00  0.00    -0.000 A 
ATOM     19  CE1 PHE A   2      25.559   6.892 -47.137  0.00  0.00    -0.000 A 
ATOM     20  CD1 PHE A   2      25.189   8.226 -46.962  0.00  0.00    -0.004 A 
ENDBRANCH  14  15
ENDBRANCH  11  14
ENDBRANCH   2  11
TORSDOF 8
REMARK  Name = ../refined-set-2016/4idn/4idn_pocket.pdb
REMARK  261 active torsions:
REMARK  status: ('A' for Active; 'I' for Inactive)
REMARK    1  A    between atoms: _1  and  _3
REMARK    2  A    between atoms: _3  and  _4
REMARK    3  A    between atoms: _3  and  _6
REMARK    4  A    between atoms: _9  and  _11
REMARK    5  A    between atoms: _11  and  _12
REMARK    6  A    between atoms: _15  and  _17
REMARK    7  A    between atoms: _17  and  _18
REMARK    8  A    between atoms: _20  and  _22
REMARK    9  A    between atoms: _22  and  _23
REMARK   10  A    between atoms: _26  and  _28
REMARK   11  A    between atoms: _28  and  _29
REMARK   12  A    between atoms: _28  and  _31
REMARK   13  A    between atoms: _31  and  _32
REMARK   14  A    between atoms: _38  and  _40
REMARK   15  A    between atoms: _40  and  _41
REMARK   16  A    between atoms: _40  and  _43
REMARK   17  A    between atoms: _43  and  _44
REMARK   18  A    between atoms: _44  and  _45
REMARK   19  A    between atoms: _45  and  _46
REMARK   20  A    between atoms: _55  and  _57
REMARK   21  A    between atoms: _57  and  _58
REMARK   22  A    between atoms: _57  and  _60
REMARK   23  A    between atoms: _60  and  _61
REMARK   24  A    between atoms: _61  and  _62
REMARK   25  A    between atoms: _62  and  _63
REMARK   26  A    between atoms: _63  and  _64
REMARK   27  A    between atoms: _68  and  _70
REMARK   28  A    between atoms: _70  and  _71
REMARK   29  A    between atoms: _73  and  _75
REMARK   30  A    between atoms: _75  and  _76
REMARK   31  A    between atoms: _75  and  _78
REMARK   32  A    between atoms: _78  and  _79
REMARK   33  A    between atoms: _79  and  _80
REMARK   34  A    between atoms: _80  and  _81
REMARK   35  A    between atoms: _81  and  _82
REMARK   36  A    between atoms: _86  and  _88
REMARK   37  A    between atoms: _88  and  _89
REMARK   38  A    between atoms: _88  and  _91
REMARK   39  A    between atoms: _91  and  _92
REMARK   40  A    between atoms: _94  and  _96
REMARK   41  A    between atoms: _96  and  _97
REMARK   42  A    between atoms: _96  and  _99
REMARK   43  A    between atoms: _99  and  _100
REMARK   44  A    between atoms: _106  and  _108
REMARK   45  A    between atoms: _108  and  _109
REMARK   46  A    between atoms: _108  and  _111
REMARK   47  A    between atoms: _111  and  _112
REMARK   48  A    between atoms: _115  and  _117
REMARK   49  A    between atoms: _117  and  _118
REMARK   50  A    between atoms: _117  and  _120
REMARK   51  A    between atoms: _120  and  _121
REMARK   52  A    between atoms: _121  and  _122
REMARK   53  A    between atoms: _124  and  _126
REMARK   54  A    between atoms: _126  and  _127
REMARK   55  A    between atoms: _126  and  _129
REMARK   56  A    between atoms: _129  and  _130
REMARK   57  A    between atoms: _133  and  _135
REMARK   58  A    between atoms: _135  and  _136
REMARK   59  A    between atoms: _135  and  _138
REMARK   60  A    between atoms: _138  and  _139
REMARK   61  A    between atoms: _145  and  _147
REMARK   62  A    between atoms: _147  and  _148
REMARK   63  A    between atoms: _147  and  _150
REMARK   64  A    between atoms: _150  and  _151
REMARK   65  A    between atoms: _154  and  _156
REMARK   66  A    between atoms: _156  and  _157
REMARK   67  A    between atoms: _156  and  _159
REMARK   68  A    between atoms: _159  and  _160
REMARK   69  A    between atoms: _166  and  _168
REMARK   70  A    between atoms: _168  and  _169
REMARK   71  A    between atoms: _168  and  _171
REMARK   72  A    between atoms: _171  and  _172
REMARK   73  A    between atoms: _174  and  _176
REMARK   74  A    between atoms: _176  and  _177
REMARK   75  A    between atoms: _176  and  _179
REMARK   76  A    between atoms: _179  and  _180
REMARK   77  A    between atoms: _190  and  _192
REMARK   78  A    between atoms: _192  and  _193
REMARK   79  A    between atoms: _192  and  _195
REMARK   80  A    between atoms: _195  and  _196
REMARK   81  A    between atoms: _196  and  _197
REMARK   82  A    between atoms: _197  and  _198
REMARK   83  A    between atoms: _207  and  _209
REMARK   84  A    between atoms: _209  and  _210
REMARK   85  A    between atoms: _212  and  _214
REMARK   86  A    between atoms: _214  and  _215
REMARK   87  A    between atoms: _217  and  _219
REMARK   88  A    between atoms: _219  and  _220
REMARK   89  A    between atoms: _219  and  _222
REMARK   90  A    between atoms: _222  and  _223
REMARK   91  A    between atoms: _225  and  _227
REMARK   92  A    between atoms: _227  and  _228
REMARK   93  A    between atoms: _227  and  _230
REMARK   94  A    between atoms: _230  and  _231
REMARK   95  A    between atoms: _231  and  _232
REMARK   96  A    between atoms: _235  and  _237
REMARK   97  A    between atoms: _237  and  _238
REMARK   98  A    between atoms: _237  and  _240
REMARK   99  A    between atoms: _240  and  _241
REMARK  100  A    between atoms: _241  and  _242
REMARK  101  A    between atoms: _242  and  _243
REMARK  102  A    between atoms: _252  and  _254
REMARK  103  A    between atoms: _254  and  _255
REMARK  104  A    between atoms: _254  and  _257
REMARK  105  A    between atoms: _257  and  _258
REMARK  106  A    between atoms: _258  and  _259
REMARK  107  A    between atoms: _262  and  _264
REMARK  108  A    between atoms: _264  and  _265
REMARK  109  A    between atoms: _264  and  _267
REMARK  110  A    between atoms: _267  and  _268
REMARK  111  A    between atoms: _271  and  _273
REMARK  112  A    between atoms: _273  and  _274
REMARK  113  A    between atoms: _273  and  _276
REMARK  114  A    between atoms: _276  and  _277
REMARK  115  A    between atoms: _280  and  _282
REMARK  116  A    between atoms: _282  and  _283
REMARK  117  A    between atoms: _282  and  _285
REMARK  118  A    between atoms: _285  and  _286
REMARK  119  A    between atoms: _286  and  _287
REMARK  120  A    between atoms: _292  and  _294
REMARK  121  A    between atoms: _294  and  _295
REMARK  122  A    between atoms: _294  and  _297
REMARK  123  A    between atoms: _297  and  _298
REMARK  124  A    between atoms: _301  and  _303
REMARK  125  A    between atoms: _303  and  _304
REMARK  126  A    between atoms: _303  and  _306
REMARK  127  A    between atoms: _306  and  _307
REMARK  128  A    between atoms: _310  and  _312
REMARK  129  A    between atoms: _312  and  _313
REMARK  130  A    between atoms: _312  and  _315
REMARK  131  A    between atoms: _315  and  _316
REMARK  132  A    between atoms: _316  and  _317
REMARK  133  A    between atoms: _322  and  _324
REMARK  134  A    between atoms: _324  and  _325
REMARK  135  A    between atoms: _327  and  _329
REMARK  136  A    between atoms: _329  and  _330
REMARK  137  A    between atoms: _329  and  _332
REMARK  138  A    between atoms: _332  and  _333
REMARK  139  A    between atoms: _336  and  _338
REMARK  140  A    between atoms: _338  and  _339
REMARK  141  A    between atoms: _338  and  _341
REMARK  142  A    between atoms: _341  and  _342
REMARK  143  A    between atoms: _345  and  _347
REMARK  144  A    between atoms: _347  and  _348
REMARK  145  A    between atoms: _347  and  _350
REMARK  146  A    between atoms: _350  and  _351
REMARK  147  A    between atoms: _356  and  _358
REMARK  148  A    between atoms: _358  and  _359
REMARK  149  A    between atoms: _358  and  _361
REMARK  150  A    between atoms: _361  and  _362
REMARK  151  A    between atoms: _365  and  _367
REMARK  152  A    between atoms: _367  and  _368
REMARK  153  A    between atoms: _367  and  _370
REMARK  154  A    between atoms: _370  and  _371
REMARK  155  A    between atoms: _373  and  _375
REMARK  156  A    between atoms: _375  and  _376
REMARK  157  A    between atoms: _375  and  _378
REMARK  158  A    between atoms: _378  and  _379
REMARK  159  A    between atoms: _379  and  _380
REMARK  160  A    between atoms: _385  and  _387
REMARK  161  A    between atoms: _387  and  _388
REMARK  162  A    between atoms: _387  and  _390
REMARK  163  A    between atoms: _390  and  _391
REMARK  164  A    between atoms: _394  and  _396
REMARK  165  A    between atoms: _396  and  _397
REMARK  166  A    between atoms: _396  and  _399
REMARK  167  A    between atoms: _402  and  _404
REMARK  168  A    between atoms: _404  and  _405
REMARK  169  A    between atoms: _404  and  _407
REMARK  170  A    between atoms: _407  and  _408
REMARK  171  A    between atoms: _408  and  _409
REMARK  172  A    between atoms: _409  and  _410
REMARK  173  A    between atoms: _419  and  _421
REMARK  174  A    between atoms: _421  and  _422
REMARK  175  A    between atoms: _421  and  _424
REMARK  176  A    between atoms: _424  and  _425
REMARK  177  A    between atoms: _428  and  _430
REMARK  178  A    between atoms: _430  and  _431
REMARK  179  A    between atoms: _430  and  _433
REMARK  180  A    between atoms: _433  and  _434
REMARK  181  A    between atoms: _444  and  _446
REMARK  182  A    between atoms: _446  and  _447
REMARK  183  A    between atoms: _446  and  _449
REMARK  184  A    between atoms: _449  and  _450
REMARK  185  A    between atoms: _454  and  _455
REMARK  186  A    between atoms: _460  and  _462
REMARK  187  A    between atoms: _462  and  _463
REMARK  188  A    between atoms: _462  and  _465
REMARK  189  A    between atoms: _465  and  _466
REMARK  190  A    between atoms: _472  and  _473
REMARK  191  A    between atoms: _478  and  _480
REMARK  192  A    between atoms: _480  and  _481
REMARK  193  A    between atoms: _483  and  _485
REMARK  194  A    between atoms: _485  and  _486
REMARK  195  A    between atoms: _485  and  _488
REMARK  196  A    between atoms: _488  and  _489
REMARK  197  A    between atoms: _492  and  _494
REMARK  198  A    between atoms: _494  and  _495
REMARK  199  A    between atoms: _494  and  _497
REMARK  200  A    between atoms: _497  and  _498
REMARK  201  A    between atoms: _498  and  _499
REMARK  202  A    between atoms: _499  and  _500
REMARK  203  A    between atoms: _500  and  _501
REMARK  204  A    between atoms: _505  and  _507
REMARK  205  A    between atoms: _507  and  _508
REMARK  206  A    between atoms: _507  and  _510
REMARK  207  A    between atoms: _513  and  _515
REMARK  208  A    between atoms: _515  and  _516
REMARK  209  A    between atoms: _519  and  _521
REMARK  210  A    between atoms: _521  and  _522
REMARK  211  A    between atoms: _521  and  _524
REMARK  212  A    between atoms: _524  and  _525
REMARK  213  A    between atoms: _528  and  _530
REMARK  214  A    between atoms: _530  and  _531
REMARK  215  A    between atoms: _530  and  _533
REMARK  216  A    between atoms: _533  and  _534
REMARK  217  A    between atoms: _540  and  _541
REMARK  218  A    between atoms: _546  and  _548
REMARK  219  A    between atoms: _548  and  _549
REMARK  220  A    between atoms: _548  and  _551
REMARK  221  A    between atoms: _551  and  _552
REMARK  222  A    between atoms: _558  and  _560
REMARK  223  A    between atoms: _560  and  _561
REMARK  224  A    between atoms: _560  and  _563
REMARK  225  A    between atoms: _563  and  _564
REMARK  226  A    between atoms: _567  and  _569
REMARK  227  A    between atoms: _569  and  _570
REMARK  228  A    between atoms: _572  and  _574
REMARK  229  A    between atoms: _574  and  _575
REMARK  230  A    between atoms: _574  and  _577
REMARK  231  A    between atoms: _577  and  _578
REMARK  232  A    between atoms: _581  and  _583
REMARK  233  A    between atoms: _583  and  _584
REMARK  234  A    between atoms: _583  and  _586
REMARK  235  A    between atoms: _586  and  _587
REMARK  236  A    between atoms: _593  and  _595
REMARK  237  A    between atoms: _595  and  _596
REMARK  238  A    between atoms: _595  and  _598
REMARK  239  A    between atoms: _598  and  _599
REMARK  240  A    between atoms: _599  and  _600
REMARK  241  A    between atoms: _605  and  _607
REMARK  242  A    between atoms: _607  and  _608
REMARK  243  A    between atoms: _607  and  _610
REMARK  244  A    between atoms: _610  and  _611
REMARK  245  A    between atoms: _614  and  _616
REMARK  246  A    between atoms: _616  and  _617
REMARK  247  A    between atoms: _616  and  _619
REMARK  248  A    between atoms: _619  and  _620
REMARK  249  A    between atoms: _622  and  _624
REMARK  250  A    between atoms: _624  and  _625
REMARK  251  A    between atoms: _624  and  _627
REMARK  252  A    between atoms: _627  and  _628
REMARK  253  A    between atoms: _634  and  _636
REMARK  254  A    between atoms: _636  and  _637
REMARK  255  A    between atoms: _636  and  _639
REMARK  256  A    between atoms: _639  and  _640
REMARK  257  A    between atoms: _645  and  _646
REMARK  258  A    between atoms: _648  and  _650
REMARK  259  A    between atoms: _650  and  _651
REMARK  260  A    between atoms: _650  and  _653
REMARK  261  A    between atoms: _653  and  _654
REMARK                            x       y       z     vdW  Elec       q    Type
REMARK                         _______ _______ _______ _____ _____    ______ ____
ROOT
ATOM      1  CG  TYR A   1      23.969  13.726 -49.287  0.00  0.00    -0.020 A 
ATOM      2  CD2 TYR A   1      25.251  13.169 -49.235  0.00  0.00    -0.001 A 
ATOM      3  CE2 TYR A   1      25.454  11.807 -49.432  0.00  0.00    +0.036 A 
ATOM      4  CZ  TYR A   1      24.372  10.992 -49.691  0.00  0.00    +0.134 A 
ATOM      5  CE1 TYR A   1      23.089  11.519 -49.755  0.00  0.00    +0.036 A 
ATOM      6  CD1 TYR A   1      22.897  12.882 -49.556  0.00  0.00    -0.001 A 
ENDROOT
BRANCH   4   7
ATOM      7  OH  TYR A   1      24.573   9.649 -49.886  0.00  0.00    -0.506 OA
ATOM      8  HH  TYR A   1      25.173   9.516 -50.662  0.00  0.00    +0.292 HD
ENDBRANCH   4   7
BRANCH   1   9
ATOM      9  CB  TYR A   1      23.755  15.208 -49.067  0.00  0.00    +0.051 C 
BRANCH   9  10
ATOM     10  CA  TYR A   1      23.497  15.582 -47.606  0.00  0.00    +0.137 C 
BRANCH  10  11
ATOM     11  N   TYR A   1      24.530  15.026 -46.737  0.00  0.00    -0.239 NA
ATOM     12  H   TYR A   1      25.104  14.227 -47.074  0.00  0.00    +0.142 HD
ENDBRANCH  10  11
BRANCH  10  13
ATOM     13  C   TYR A   1      22.106  15.113 -47.177  0.00  0.00    +0.224 C 
ATOM     14  O   TYR A   1      21.090  15.595 -47.687  0.00  0.00    -0.287 OA
ENDBRANCH  10  13
ENDBRANCH   9  10
ENDBRANCH   1   9
TORSDOF 5
REMARK  Name = ../refined-set-2016/4idn/4idn_pocket.pdb
REMARK  261 active torsions:
REMARK  status: ('A' for Active; 'I' for Inactive)
REMARK    1  A    between atoms: _1  and  _3
REMARK    2  A    between atoms: _3  and  _4
REMARK    3  A    between atoms: _3  and  _6
REMARK    4  A    between atoms: _9  and  _11
REMARK    5  A    between atoms: _11  and  _12
REMARK    6  A    between atoms: _15  and  _17
REMARK    7  A    between atoms: _17  and  _18
REMARK    8  A    between atoms: _20  and  _22
REMARK    9  A    between atoms: _22  and  _23
REMARK   10  A    between atoms: _26  and  _28
REMARK   11  A    between atoms: _28  and  _29
REMARK   12  A    between atoms: _28  and  _31
REMARK   13  A    between atoms: _31  and  _32
REMARK   14  A    between atoms: _38  and  _40
REMARK   15  A    between atoms: _40  and  _41
REMARK   16  A    between atoms: _40  and  _43
REMARK   17  A    between atoms: _43  and  _44
REMARK   18  A    between atoms: _44  and  _45
REMARK   19  A    between atoms: _45  and  _46
REMARK   20  A    between atoms: _55  and  _57
REMARK   21  A    between atoms: _57  and  _58
REMARK   22  A    between atoms: _57  and  _60
REMARK   23  A    between atoms: _60  and  _61
REMARK   24  A    between atoms: _61  and  _62
REMARK   25  A    between atoms: _62  and  _63
REMARK   26  A    between atoms: _63  and  _64
REMARK   27  A    between atoms: _68  and  _70
REMARK   28  A    between atoms: _70  and  _71
REMARK   29  A    between atoms: _73  and  _75
REMARK   30  A    between atoms: _75  and  _76
REMARK   31  A    between atoms: _75  and  _78
REMARK   32  A    between atoms: _78  and  _79
REMARK   33  A    between atoms: _79  and  _80
REMARK   34  A    between atoms: _80  and  _81
REMARK   35  A    between atoms: _81  and  _82
REMARK   36  A    between atoms: _86  and  _88
REMARK   37  A    between atoms: _88  and  _89
REMARK   38  A    between atoms: _88  and  _91
REMARK   39  A    between atoms: _91  and  _92
REMARK   40  A    between atoms: _94  and  _96
REMARK   41  A    between atoms: _96  and  _97
REMARK   42  A    between atoms: _96  and  _99
REMARK   43  A    between atoms: _99  and  _100
REMARK   44  A    between atoms: _106  and  _108
REMARK   45  A    between atoms: _108  and  _109
REMARK   46  A    between atoms: _108  and  _111
REMARK   47  A    between atoms: _111  and  _112
REMARK   48  A    between atoms: _115  and  _117
REMARK   49  A    between atoms: _117  and  _118
REMARK   50  A    between atoms: _117  and  _120
REMARK   51  A    between atoms: _120  and  _121
REMARK   52  A    between atoms: _121  and  _122
REMARK   53  A    between atoms: _124  and  _126
REMARK   54  A    between atoms: _126  and  _127
REMARK   55  A    between atoms: _126  and  _129
REMARK   56  A    between atoms: _129  and  _130
REMARK   57  A    between atoms: _133  and  _135
REMARK   58  A    between atoms: _135  and  _136
REMARK   59  A    between atoms: _135  and  _138
REMARK   60  A    between atoms: _138  and  _139
REMARK   61  A    between atoms: _145  and  _147
REMARK   62  A    between atoms: _147  and  _148
REMARK   63  A    between atoms: _147  and  _150
REMARK   64  A    between atoms: _150  and  _151
REMARK   65  A    between atoms: _154  and  _156
REMARK   66  A    between atoms: _156  and  _157
REMARK   67  A    between atoms: _156  and  _159
REMARK   68  A    between atoms: _159  and  _160
REMARK   69  A    between atoms: _166  and  _168
REMARK   70  A    between atoms: _168  and  _169
REMARK   71  A    between atoms: _168  and  _171
REMARK   72  A    between atoms: _171  and  _172
REMARK   73  A    between atoms: _174  and  _176
REMARK   74  A    between atoms: _176  and  _177
REMARK   75  A    between atoms: _176  and  _179
REMARK   76  A    between atoms: _179  and  _180
REMARK   77  A    between atoms: _190  and  _192
REMARK   78  A    between atoms: _192  and  _193
REMARK   79  A    between atoms: _192  and  _195
REMARK   80  A    between atoms: _195  and  _196
REMARK   81  A    between atoms: _196  and  _197
REMARK   82  A    between atoms: _197  and  _198
REMARK   83  A    between atoms: _207  and  _209
REMARK   84  A    between atoms: _209  and  _210
REMARK   85  A    between atoms: _212  and  _214
REMARK   86  A    between atoms: _214  and  _215
REMARK   87  A    between atoms: _217  and  _219
REMARK   88  A    between atoms: _219  and  _220
REMARK   89  A    between atoms: _219  and  _222
REMARK   90  A    between atoms: _222  and  _223
REMARK   91  A    between atoms: _225  and  _227
REMARK   92  A    between atoms: _227  and  _228
REMARK   93  A    between atoms: _227  and  _230
REMARK   94  A    between atoms: _230  and  _231
REMARK   95  A    between atoms: _231  and  _232
REMARK   96  A    between atoms: _235  and  _237
REMARK   97  A    between atoms: _237  and  _238
REMARK   98  A    between atoms: _237  and  _240
REMARK   99  A    between atoms: _240  and  _241
REMARK  100  A    between atoms: _241  and  _242
REMARK  101  A    between atoms: _242  and  _243
REMARK  102  A    between atoms: _252  and  _254
REMARK  103  A    between atoms: _254  and  _255
REMARK  104  A    between atoms: _254  and  _257
REMARK  105  A    between atoms: _257  and  _258
REMARK  106  A    between atoms: _258  and  _259
REMARK  107  A    between atoms: _262  and  _264
REMARK  108  A    between atoms: _264  and  _265
REMARK  109  A    between atoms: _264  and  _267
REMARK  110  A    between atoms: _267  and  _268
REMARK  111  A    between atoms: _271  and  _273
REMARK  112  A    between atoms: _273  and  _274
REMARK  113  A    between atoms: _273  and  _276
REMARK  114  A    between atoms: _276  and  _277
REMARK  115  A    between atoms: _280  and  _282
REMARK  116  A    between atoms: _282  and  _283
REMARK  117  A    between atoms: _282  and  _285
REMARK  118  A    between atoms: _285  and  _286
REMARK  119  A    between atoms: _286  and  _287
REMARK  120  A    between atoms: _292  and  _294
REMARK  121  A    between atoms: _294  and  _295
REMARK  122  A    between atoms: _294  and  _297
REMARK  123  A    between atoms: _297  and  _298
REMARK  124  A    between atoms: _301  and  _303
REMARK  125  A    between atoms: _303  and  _304
REMARK  126  A    between atoms: _303  and  _306
REMARK  127  A    between atoms: _306  and  _307
REMARK  128  A    between atoms: _310  and  _312
REMARK  129  A    between atoms: _312  and  _313
REMARK  130  A    between atoms: _312  and  _315
REMARK  131  A    between atoms: _315  and  _316
REMARK  132  A    between atoms: _316  and  _317
REMARK  133  A    between atoms: _322  and  _324
REMARK  134  A    between atoms: _324  and  _325
REMARK  135  A    between atoms: _327  and  _329
REMARK  136  A    between atoms: _329  and  _330
REMARK  137  A    between atoms: _329  and  _332
REMARK  138  A    between atoms: _332  and  _333
REMARK  139  A    between atoms: _336  and  _338
REMARK  140  A    between atoms: _338  and  _339
REMARK  141  A    between atoms: _338  and  _341
REMARK  142  A    between atoms: _341  and  _342
REMARK  143  A    between atoms: _345  and  _347
REMARK  144  A    between atoms: _347  and  _348
REMARK  145  A    between atoms: _347  and  _350
REMARK  146  A    between atoms: _350  and  _351
REMARK  147  A    between atoms: _356  and  _358
REMARK  148  A    between atoms: _358  and  _359
REMARK  149  A    between atoms: _358  and  _361
REMARK  150  A    between atoms: _361  and  _362
REMARK  151  A    between atoms: _365  and  _367
REMARK  152  A    between atoms: _367  and  _368
REMARK  153  A    between atoms: _367  and  _370
REMARK  154  A    between atoms: _370  and  _371
REMARK  155  A    between atoms: _373  and  _375
REMARK  156  A    between atoms: _375  and  _376
REMARK  157  A    between atoms: _375  and  _378
REMARK  158  A    between atoms: _378  and  _379
REMARK  159  A    between atoms: _379  and  _380
REMARK  160  A    between atoms: _385  and  _387
REMARK  161  A    between atoms: _387  and  _388
REMARK  162  A    between atoms: _387  and  _390
REMARK  163  A    between atoms: _390  and  _391
REMARK  164  A    between atoms: _394  and  _396
REMARK  165  A    between atoms: _396  and  _397
REMARK  166  A    between atoms: _396  and  _399
REMARK  167  A    between atoms: _402  and  _404
REMARK  168  A    between atoms: _404  and  _405
REMARK  169  A    between atoms: _404  and  _407
REMARK  170  A    between atoms: _407  and  _408
REMARK  171  A    between atoms: _408  and  _409
REMARK  172  A    between atoms: _409  and  _410
REMARK  173  A    between atoms: _419  and  _421
REMARK  174  A    between atoms: _421  and  _422
REMARK  175  A    between atoms: _421  and  _424
REMARK  176  A    between atoms: _424  and  _425
REMARK  177  A    between atoms: _428  and  _430
REMARK  178  A    between atoms: _430  and  _431
REMARK  179  A    between atoms: _430  and  _433
REMARK  180  A    between atoms: _433  and  _434
REMARK  181  A    between atoms: _444  and  _446
REMARK  182  A    between atoms: _446  and  _447
REMARK  183  A    between atoms: _446  and  _449
REMARK  184  A    between atoms: _449  and  _450
REMARK  185  A    between atoms: _454  and  _455
REMARK  186  A    between atoms: _460  and  _462
REMARK  187  A    between atoms: _462  and  _463
REMARK  188  A    between atoms: _462  and  _465
REMARK  189  A    between atoms: _465  and  _466
REMARK  190  A    between atoms: _472  and  _473
REMARK  191  A    between atoms: _478  and  _480
REMARK  192  A    between atoms: _480  and  _481
REMARK  193  A    between atoms: _483  and  _485
REMARK  194  A    between atoms: _485  and  _486
REMARK  195  A    between atoms: _485  and  _488
REMARK  196  A    between atoms: _488  and  _489
REMARK  197  A    between atoms: _492  and  _494
REMARK  198  A    between atoms: _494  and  _495
REMARK  199  A    between atoms: _494  and  _497
REMARK  200  A    between atoms: _497  and  _498
REMARK  201  A    between atoms: _498  and  _499
REMARK  202  A    between atoms: _499  and  _500
REMARK  203  A    between atoms: _500  and  _501
REMARK  204  A    between atoms: _505  and  _507
REMARK  205  A    between atoms: _507  and  _508
REMARK  206  A    between atoms: _507  and  _510
REMARK  207  A    between atoms: _513  and  _515
REMARK  208  A    between atoms: _515  and  _516
REMARK  209  A    between atoms: _519  and  _521
REMARK  210  A    between atoms: _521  and  _522
REMARK  211  A    between atoms: _521  and  _524
REMARK  212  A    between atoms: _524  and  _525
REMARK  213  A    between atoms: _528  and  _530
REMARK  214  A    between atoms: _530  and  _531
REMARK  215  A    between atoms: _530  and  _533
REMARK  216  A    between atoms: _533  and  _534
REMARK  217  A    between atoms: _540  and  _541
REMARK  218  A    between atoms: _546  and  _548
REMARK  219  A    between atoms: _548  and  _549
REMARK  220  A    between atoms: _548  and  _551
REMARK  221  A    between atoms: _551  and  _552
REMARK  222  A    between atoms: _558  and  _560
REMARK  223  A    between atoms: _560  and  _561
REMARK  224  A    between atoms: _560  and  _563
REMARK  225  A    between atoms: _563  and  _564
REMARK  226  A    between atoms: _567  and  _569
REMARK  227  A    between atoms: _569  and  _570
REMARK  228  A    between atoms: _572  and  _574
REMARK  229  A    between atoms: _574  and  _575
REMARK  230  A    between atoms: _574  and  _577
REMARK  231  A    between atoms: _577  and  _578
REMARK  232  A    between atoms: _581  and  _583
REMARK  233  A    between atoms: _583  and  _584
REMARK  234  A    between atoms: _583  and  _586
REMARK  235  A    between atoms: _586  and  _587
REMARK  236  A    between atoms: _593  and  _595
REMARK  237  A    between atoms: _595  and  _596
REMARK  238  A    between atoms: _595  and  _598
REMARK  239  A    between atoms: _598  and  _599
REMARK  240  A    between atoms: _599  and  _600
REMARK  241  A    between atoms: _605  and  _607
REMARK  242  A    between atoms: _607  and  _608
REMARK  243  A    between atoms: _607  and  _610
REMARK  244  A    between atoms: _610  and  _611
REMARK  245  A    between atoms: _614  and  _616
REMARK  246  A    between atoms: _616  and  _617
REMARK  247  A    between atoms: _616  and  _619
REMARK  248  A    between atoms: _619  and  _620
REMARK  249  A    between atoms: _622  and  _624
REMARK  250  A    between atoms: _624  and  _625
REMARK  251  A    between atoms: _624  and  _627
REMARK  252  A    between atoms: _627  and  _628
REMARK  253  A    between atoms: _634  and  _636
REMARK  254  A    between atoms: _636  and  _637
REMARK  255  A    between atoms: _636  and  _639
REMARK  256  A    between atoms: _639  and  _640
REMARK  257  A    between atoms: _645  and  _646
REMARK  258  A    between atoms: _648  and  _650
REMARK  259  A    between atoms: _650  and  _651
REMARK  260  A    between atoms: _650  and  _653
REMARK  261  A    between atoms: _653  and  _654
REMARK                            x       y       z     vdW  Elec       q    Type
REMARK                         _______ _______ _______ _____ _____    ______ ____
ROOT
ATOM      1  CB  HIS A   1      35.596   9.581 -42.858  0.00  0.00    +0.072 C 
ENDROOT
BRANCH   1   2
ATOM      2  CG  HIS A   1      36.540   8.417 -42.873  0.00  0.00    +0.082 A 
ATOM      3  ND1 HIS A   1      37.909   8.569 -42.830  0.00  0.00    -0.227 NA
ATOM      4  CE1 HIS A   1      38.485   7.378 -42.866  0.00  0.00    +0.199 A 
ATOM      5  NE2 HIS A   1      37.537   6.459 -42.935  0.00  0.00    -0.221 NA
ATOM      6  CD2 HIS A   1      36.311   7.083 -42.946  0.00  0.00    +0.115 A 
ENDBRANCH   1   2
BRANCH   1   7
ATOM      7  CA  HIS A   1      35.486  10.280 -41.498  0.00  0.00    +0.139 C 
BRANCH   7   8
ATOM      8  N   HIS A   1      34.278  11.089 -41.462  0.00  0.00    -0.239 NA
ATOM      9  H   HIS A   1      33.693  11.152 -42.319  0.00  0.00    +0.142 HD
ENDBRANCH   7   8
BRANCH   7  10
ATOM     10  C   HIS A   1      36.690  11.195 -41.288  0.00  0.00    +0.224 C 
ATOM     11  O   HIS A   1      36.754  12.280 -41.871  0.00  0.00    -0.287 OA
ENDBRANCH   7  10
ENDBRANCH   1   7
TORSDOF 4
REMARK  Name = ../refined-set-2016/4idn/4idn_pocket.pdb
REMARK  261 active torsions:
REMARK  status: ('A' for Active; 'I' for Inactive)
REMARK    1  A    between atoms: _1  and  _3
REMARK    2  A    between atoms: _3  and  _4
REMARK    3  A    between atoms: _3  and  _6
REMARK    4  A    between atoms: _9  and  _11
REMARK    5  A    between atoms: _11  and  _12
REMARK    6  A    between atoms: _15  and  _17
REMARK    7  A    between atoms: _17  and  _18
REMARK    8  A    between atoms: _20  and  _22
REMARK    9  A    between atoms: _22  and  _23
REMARK   10  A    between atoms: _26  and  _28
REMARK   11  A    between atoms: _28  and  _29
REMARK   12  A    between atoms: _28  and  _31
REMARK   13  A    between atoms: _31  and  _32
REMARK   14  A    between atoms: _38  and  _40
REMARK   15  A    between atoms: _40  and  _41
REMARK   16  A    between atoms: _40  and  _43
REMARK   17  A    between atoms: _43  and  _44
REMARK   18  A    between atoms: _44  and  _45
REMARK   19  A    between atoms: _45  and  _46
REMARK   20  A    between atoms: _55  and  _57
REMARK   21  A    between atoms: _57  and  _58
REMARK   22  A    between atoms: _57  and  _60
REMARK   23  A    between atoms: _60  and  _61
REMARK   24  A    between atoms: _61  and  _62
REMARK   25  A    between atoms: _62  and  _63
REMARK   26  A    between atoms: _63  and  _64
REMARK   27  A    between atoms: _68  and  _70
REMARK   28  A    between atoms: _70  and  _71
REMARK   29  A    between atoms: _73  and  _75
REMARK   30  A    between atoms: _75  and  _76
REMARK   31  A    between atoms: _75  and  _78
REMARK   32  A    between atoms: _78  and  _79
REMARK   33  A    between atoms: _79  and  _80
REMARK   34  A    between atoms: _80  and  _81
REMARK   35  A    between atoms: _81  and  _82
REMARK   36  A    between atoms: _86  and  _88
REMARK   37  A    between atoms: _88  and  _89
REMARK   38  A    between atoms: _88  and  _91
REMARK   39  A    between atoms: _91  and  _92
REMARK   40  A    between atoms: _94  and  _96
REMARK   41  A    between atoms: _96  and  _97
REMARK   42  A    between atoms: _96  and  _99
REMARK   43  A    between atoms: _99  and  _100
REMARK   44  A    between atoms: _106  and  _108
REMARK   45  A    between atoms: _108  and  _109
REMARK   46  A    between atoms: _108  and  _111
REMARK   47  A    between atoms: _111  and  _112
REMARK   48  A    between atoms: _115  and  _117
REMARK   49  A    between atoms: _117  and  _118
REMARK   50  A    between atoms: _117  and  _120
REMARK   51  A    between atoms: _120  and  _121
REMARK   52  A    between atoms: _121  and  _122
REMARK   53  A    between atoms: _124  and  _126
REMARK   54  A    between atoms: _126  and  _127
REMARK   55  A    between atoms: _126  and  _129
REMARK   56  A    between atoms: _129  and  _130
REMARK   57  A    between atoms: _133  and  _135
REMARK   58  A    between atoms: _135  and  _136
REMARK   59  A    between atoms: _135  and  _138
REMARK   60  A    between atoms: _138  and  _139
REMARK   61  A    between atoms: _145  and  _147
REMARK   62  A    between atoms: _147  and  _148
REMARK   63  A    between atoms: _147  and  _150
REMARK   64  A    between atoms: _150  and  _151
REMARK   65  A    between atoms: _154  and  _156
REMARK   66  A    between atoms: _156  and  _157
REMARK   67  A    between atoms: _156  and  _159
REMARK   68  A    between atoms: _159  and  _160
REMARK   69  A    between atoms: _166  and  _168
REMARK   70  A    between atoms: _168  and  _169
REMARK   71  A    between atoms: _168  and  _171
REMARK   72  A    between atoms: _171  and  _172
REMARK   73  A    between atoms: _174  and  _176
REMARK   74  A    between atoms: _176  and  _177
REMARK   75  A    between atoms: _176  and  _179
REMARK   76  A    between atoms: _179  and  _180
REMARK   77  A    between atoms: _190  and  _192
REMARK   78  A    between atoms: _192  and  _193
REMARK   79  A    between atoms: _192  and  _195
REMARK   80  A    between atoms: _195  and  _196
REMARK   81  A    between atoms: _196  and  _197
REMARK   82  A    between atoms: _197  and  _198
REMARK   83  A    between atoms: _207  and  _209
REMARK   84  A    between atoms: _209  and  _210
REMARK   85  A    between atoms: _212  and  _214
REMARK   86  A    between atoms: _214  and  _215
REMARK   87  A    between atoms: _217  and  _219
REMARK   88  A    between atoms: _219  and  _220
REMARK   89  A    between atoms: _219  and  _222
REMARK   90  A    between atoms: _222  and  _223
REMARK   91  A    between atoms: _225  and  _227
REMARK   92  A    between atoms: _227  and  _228
REMARK   93  A    between atoms: _227  and  _230
REMARK   94  A    between atoms: _230  and  _231
REMARK   95  A    between atoms: _231  and  _232
REMARK   96  A    between atoms: _235  and  _237
REMARK   97  A    between atoms: _237  and  _238
REMARK   98  A    between atoms: _237  and  _240
REMARK   99  A    between atoms: _240  and  _241
REMARK  100  A    between atoms: _241  and  _242
REMARK  101  A    between atoms: _242  and  _243
REMARK  102  A    between atoms: _252  and  _254
REMARK  103  A    between atoms: _254  and  _255
REMARK  104  A    between atoms: _254  and  _257
REMARK  105  A    between atoms: _257  and  _258
REMARK  106  A    between atoms: _258  and  _259
REMARK  107  A    between atoms: _262  and  _264
REMARK  108  A    between atoms: _264  and  _265
REMARK  109  A    between atoms: _264  and  _267
REMARK  110  A    between atoms: _267  and  _268
REMARK  111  A    between atoms: _271  and  _273
REMARK  112  A    between atoms: _273  and  _274
REMARK  113  A    between atoms: _273  and  _276
REMARK  114  A    between atoms: _276  and  _277
REMARK  115  A    between atoms: _280  and  _282
REMARK  116  A    between atoms: _282  and  _283
REMARK  117  A    between atoms: _282  and  _285
REMARK  118  A    between atoms: _285  and  _286
REMARK  119  A    between atoms: _286  and  _287
REMARK  120  A    between atoms: _292  and  _294
REMARK  121  A    between atoms: _294  and  _295
REMARK  122  A    between atoms: _294  and  _297
REMARK  123  A    between atoms: _297  and  _298
REMARK  124  A    between atoms: _301  and  _303
REMARK  125  A    between atoms: _303  and  _304
REMARK  126  A    between atoms: _303  and  _306
REMARK  127  A    between atoms: _306  and  _307
REMARK  128  A    between atoms: _310  and  _312
REMARK  129  A    between atoms: _312  and  _313
REMARK  130  A    between atoms: _312  and  _315
REMARK  131  A    between atoms: _315  and  _316
REMARK  132  A    between atoms: _316  and  _317
REMARK  133  A    between atoms: _322  and  _324
REMARK  134  A    between atoms: _324  and  _325
REMARK  135  A    between atoms: _327  and  _329
REMARK  136  A    between atoms: _329  and  _330
REMARK  137  A    between atoms: _329  and  _332
REMARK  138  A    between atoms: _332  and  _333
REMARK  139  A    between atoms: _336  and  _338
REMARK  140  A    between atoms: _338  and  _339
REMARK  141  A    between atoms: _338  and  _341
REMARK  142  A    between atoms: _341  and  _342
REMARK  143  A    between atoms: _345  and  _347
REMARK  144  A    between atoms: _347  and  _348
REMARK  145  A    between atoms: _347  and  _350
REMARK  146  A    between atoms: _350  and  _351
REMARK  147  A    between atoms: _356  and  _358
REMARK  148  A    between atoms: _358  and  _359
REMARK  149  A    between atoms: _358  and  _361
REMARK  150  A    between atoms: _361  and  _362
REMARK  151  A    between atoms: _365  and  _367
REMARK  152  A    between atoms: _367  and  _368
REMARK  153  A    between atoms: _367  and  _370
REMARK  154  A    between atoms: _370  and  _371
REMARK  155  A    between atoms: _373  and  _375
REMARK  156  A    between atoms: _375  and  _376
REMARK  157  A    between atoms: _375  and  _378
REMARK  158  A    between atoms: _378  and  _379
REMARK  159  A    between atoms: _379  and  _380
REMARK  160  A    between atoms: _385  and  _387
REMARK  161  A    between atoms: _387  and  _388
REMARK  162  A    between atoms: _387  and  _390
REMARK  163  A    between atoms: _390  and  _391
REMARK  164  A    between atoms: _394  and  _396
REMARK  165  A    between atoms: _396  and  _397
REMARK  166  A    between atoms: _396  and  _399
REMARK  167  A    between atoms: _402  and  _404
REMARK  168  A    between atoms: _404  and  _405
REMARK  169  A    between atoms: _404  and  _407
REMARK  170  A    between atoms: _407  and  _408
REMARK  171  A    between atoms: _408  and  _409
REMARK  172  A    between atoms: _409  and  _410
REMARK  173  A    between atoms: _419  and  _421
REMARK  174  A    between atoms: _421  and  _422
REMARK  175  A    between atoms: _421  and  _424
REMARK  176  A    between atoms: _424  and  _425
REMARK  177  A    between atoms: _428  and  _430
REMARK  178  A    between atoms: _430  and  _431
REMARK  179  A    between atoms: _430  and  _433
REMARK  180  A    between atoms: _433  and  _434
REMARK  181  A    between atoms: _444  and  _446
REMARK  182  A    between atoms: _446  and  _447
REMARK  183  A    between atoms: _446  and  _449
REMARK  184  A    between atoms: _449  and  _450
REMARK  185  A    between atoms: _454  and  _455
REMARK  186  A    between atoms: _460  and  _462
REMARK  187  A    between atoms: _462  and  _463
REMARK  188  A    between atoms: _462  and  _465
REMARK  189  A    between atoms: _465  and  _466
REMARK  190  A    between atoms: _472  and  _473
REMARK  191  A    between atoms: _478  and  _480
REMARK  192  A    between atoms: _480  and  _481
REMARK  193  A    between atoms: _483  and  _485
REMARK  194  A    between atoms: _485  and  _486
REMARK  195  A    between atoms: _485  and  _488
REMARK  196  A    between atoms: _488  and  _489
REMARK  197  A    between atoms: _492  and  _494
REMARK  198  A    between atoms: _494  and  _495
REMARK  199  A    between atoms: _494  and  _497
REMARK  200  A    between atoms: _497  and  _498
REMARK  201  A    between atoms: _498  and  _499
REMARK  202  A    between atoms: _499  and  _500
REMARK  203  A    between atoms: _500  and  _501
REMARK  204  A    between atoms: _505  and  _507
REMARK  205  A    between atoms: _507  and  _508
REMARK  206  A    between atoms: _507  and  _510
REMARK  207  A    between atoms: _513  and  _515
REMARK  208  A    between atoms: _515  and  _516
REMARK  209  A    between atoms: _519  and  _521
REMARK  210  A    between atoms: _521  and  _522
REMARK  211  A    between atoms: _521  and  _524
REMARK  212  A    between atoms: _524  and  _525
REMARK  213  A    between atoms: _528  and  _530
REMARK  214  A    between atoms: _530  and  _531
REMARK  215  A    between atoms: _530  and  _533
REMARK  216  A    between atoms: _533  and  _534
REMARK  217  A    between atoms: _540  and  _541
REMARK  218  A    between atoms: _546  and  _548
REMARK  219  A    between atoms: _548  and  _549
REMARK  220  A    between atoms: _548  and  _551
REMARK  221  A    between atoms: _551  and  _552
REMARK  222  A    between atoms: _558  and  _560
REMARK  223  A    between atoms: _560  and  _561
REMARK  224  A    between atoms: _560  and  _563
REMARK  225  A    between atoms: _563  and  _564
REMARK  226  A    between atoms: _567  and  _569
REMARK  227  A    between atoms: _569  and  _570
REMARK  228  A    between atoms: _572  and  _574
REMARK  229  A    between atoms: _574  and  _575
REMARK  230  A    between atoms: _574  and  _577
REMARK  231  A    between atoms: _577  and  _578
REMARK  232  A    between atoms: _581  and  _583
REMARK  233  A    between atoms: _583  and  _584
REMARK  234  A    between atoms: _583  and  _586
REMARK  235  A    between atoms: _586  and  _587
REMARK  236  A    between atoms: _593  and  _595
REMARK  237  A    between atoms: _595  and  _596
REMARK  238  A    between atoms: _595  and  _598
REMARK  239  A    between atoms: _598  and  _599
REMARK  240  A    between atoms: _599  and  _600
REMARK  241  A    between atoms: _605  and  _607
REMARK  242  A    between atoms: _607  and  _608
REMARK  243  A    between atoms: _607  and  _610
REMARK  244  A    between atoms: _610  and  _611
REMARK  245  A    between atoms: _614  and  _616
REMARK  246  A    between atoms: _616  and  _617
REMARK  247  A    between atoms: _616  and  _619
REMARK  248  A    between atoms: _619  and  _620
REMARK  249  A    between atoms: _622  and  _624
REMARK  250  A    between atoms: _624  and  _625
REMARK  251  A    between atoms: _624  and  _627
REMARK  252  A    between atoms: _627  and  _628
REMARK  253  A    between atoms: _634  and  _636
REMARK  254  A    between atoms: _636  and  _637
REMARK  255  A    between atoms: _636  and  _639
REMARK  256  A    between atoms: _639  and  _640
REMARK  257  A    between atoms: _645  and  _646
REMARK  258  A    between atoms: _648  and  _650
REMARK  259  A    between atoms: _650  and  _651
REMARK  260  A    between atoms: _650  and  _653
REMARK  261  A    between atoms: _653  and  _654
REMARK                            x       y       z     vdW  Elec       q    Type
REMARK                         _______ _______ _______ _____ _____    ______ ____
ROOT
ATOM      1 MG   UNL     1      21.675  -3.651 -51.984  0.00  0.00    +0.000 Mg
ATOM      2  O   UNL     1      21.952  -5.562 -51.433  0.00  0.00    +0.000 OA
ATOM      3  O   UNL     1      21.506  -1.795 -52.861  0.00  0.00    +0.000 OA
ENDROOT
TORSDOF 0
REMARK  Name = ../refined-set-2016/4idn/4idn_pocket.pdb
REMARK  261 active torsions:
REMARK  status: ('A' for Active; 'I' for Inactive)
REMARK    1  A    between atoms: _1  and  _3
REMARK    2  A    between atoms: _3  and  _4
REMARK    3  A    between atoms: _3  and  _6
REMARK    4  A    between atoms: _9  and  _11
REMARK    5  A    between atoms: _11  and  _12
REMARK    6  A    between atoms: _15  and  _17
REMARK    7  A    between atoms: _17  and  _18
REMARK    8  A    between atoms: _20  and  _22
REMARK    9  A    between atoms: _22  and  _23
REMARK   10  A    between atoms: _26  and  _28
REMARK   11  A    between atoms: _28  and  _29
REMARK   12  A    between atoms: _28  and  _31
REMARK   13  A    between atoms: _31  and  _32
REMARK   14  A    between atoms: _38  and  _40
REMARK   15  A    between atoms: _40  and  _41
REMARK   16  A    between atoms: _40  and  _43
REMARK   17  A    between atoms: _43  and  _44
REMARK   18  A    between atoms: _44  and  _45
REMARK   19  A    between atoms: _45  and  _46
REMARK   20  A    between atoms: _55  and  _57
REMARK   21  A    between atoms: _57  and  _58
REMARK   22  A    between atoms: _57  and  _60
REMARK   23  A    between atoms: _60  and  _61
REMARK   24  A    between atoms: _61  and  _62
REMARK   25  A    between atoms: _62  and  _63
REMARK   26  A    between atoms: _63  and  _64
REMARK   27  A    between atoms: _68  and  _70
REMARK   28  A    between atoms: _70  and  _71
REMARK   29  A    between atoms: _73  and  _75
REMARK   30  A    between atoms: _75  and  _76
REMARK   31  A    between atoms: _75  and  _78
REMARK   32  A    between atoms: _78  and  _79
REMARK   33  A    between atoms: _79  and  _80
REMARK   34  A    between atoms: _80  and  _81
REMARK   35  A    between atoms: _81  and  _82
REMARK   36  A    between atoms: _86  and  _88
REMARK   37  A    between atoms: _88  and  _89
REMARK   38  A    between atoms: _88  and  _91
REMARK   39  A    between atoms: _91  and  _92
REMARK   40  A    between atoms: _94  and  _96
REMARK   41  A    between atoms: _96  and  _97
REMARK   42  A    between atoms: _96  and  _99
REMARK   43  A    between atoms: _99  and  _100
REMARK   44  A    between atoms: _106  and  _108
REMARK   45  A    between atoms: _108  and  _109
REMARK   46  A    between atoms: _108  and  _111
REMARK   47  A    between atoms: _111  and  _112
REMARK   48  A    between atoms: _115  and  _117
REMARK   49  A    between atoms: _117  and  _118
REMARK   50  A    between atoms: _117  and  _120
REMARK   51  A    between atoms: _120  and  _121
REMARK   52  A    between atoms: _121  and  _122
REMARK   53  A    between atoms: _124  and  _126
REMARK   54  A    between atoms: _126  and  _127
REMARK   55  A    between atoms: _126  and  _129
REMARK   56  A    between atoms: _129  and  _130
REMARK   57  A    between atoms: _133  and  _135
REMARK   58  A    between atoms: _135  and  _136
REMARK   59  A    between atoms: _135  and  _138
REMARK   60  A    between atoms: _138  and  _139
REMARK   61  A    between atoms: _145  and  _147
REMARK   62  A    between atoms: _147  and  _148
REMARK   63  A    between atoms: _147  and  _150
REMARK   64  A    between atoms: _150  and  _151
REMARK   65  A    between atoms: _154  and  _156
REMARK   66  A    between atoms: _156  and  _157
REMARK   67  A    between atoms: _156  and  _159
REMARK   68  A    between atoms: _159  and  _160
REMARK   69  A    between atoms: _166  and  _168
REMARK   70  A    between atoms: _168  and  _169
REMARK   71  A    between atoms: _168  and  _171
REMARK   72  A    between atoms: _171  and  _172
REMARK   73  A    between atoms: _174  and  _176
REMARK   74  A    between atoms: _176  and  _177
REMARK   75  A    between atoms: _176  and  _179
REMARK   76  A    between atoms: _179  and  _180
REMARK   77  A    between atoms: _190  and  _192
REMARK   78  A    between atoms: _192  and  _193
REMARK   79  A    between atoms: _192  and  _195
REMARK   80  A    between atoms: _195  and  _196
REMARK   81  A    between atoms: _196  and  _197
REMARK   82  A    between atoms: _197  and  _198
REMARK   83  A    between atoms: _207  and  _209
REMARK   84  A    between atoms: _209  and  _210
REMARK   85  A    between atoms: _212  and  _214
REMARK   86  A    between atoms: _214  and  _215
REMARK   87  A    between atoms: _217  and  _219
REMARK   88  A    between atoms: _219  and  _220
REMARK   89  A    between atoms: _219  and  _222
REMARK   90  A    between atoms: _222  and  _223
REMARK   91  A    between atoms: _225  and  _227
REMARK   92  A    between atoms: _227  and  _228
REMARK   93  A    between atoms: _227  and  _230
REMARK   94  A    between atoms: _230  and  _231
REMARK   95  A    between atoms: _231  and  _232
REMARK   96  A    between atoms: _235  and  _237
REMARK   97  A    between atoms: _237  and  _238
REMARK   98  A    between atoms: _237  and  _240
REMARK   99  A    between atoms: _240  and  _241
REMARK  100  A    between atoms: _241  and  _242
REMARK  101  A    between atoms: _242  and  _243
REMARK  102  A    between atoms: _252  and  _254
REMARK  103  A    between atoms: _254  and  _255
REMARK  104  A    between atoms: _254  and  _257
REMARK  105  A    between atoms: _257  and  _258
REMARK  106  A    between atoms: _258  and  _259
REMARK  107  A    between atoms: _262  and  _264
REMARK  108  A    between atoms: _264  and  _265
REMARK  109  A    between atoms: _264  and  _267
REMARK  110  A    between atoms: _267  and  _268
REMARK  111  A    between atoms: _271  and  _273
REMARK  112  A    between atoms: _273  and  _274
REMARK  113  A    between atoms: _273  and  _276
REMARK  114  A    between atoms: _276  and  _277
REMARK  115  A    between atoms: _280  and  _282
REMARK  116  A    between atoms: _282  and  _283
REMARK  117  A    between atoms: _282  and  _285
REMARK  118  A    between atoms: _285  and  _286
REMARK  119  A    between atoms: _286  and  _287
REMARK  120  A    between atoms: _292  and  _294
REMARK  121  A    between atoms: _294  and  _295
REMARK  122  A    between atoms: _294  and  _297
REMARK  123  A    between atoms: _297  and  _298
REMARK  124  A    between atoms: _301  and  _303
REMARK  125  A    between atoms: _303  and  _304
REMARK  126  A    between atoms: _303  and  _306
REMARK  127  A    between atoms: _306  and  _307
REMARK  128  A    between atoms: _310  and  _312
REMARK  129  A    between atoms: _312  and  _313
REMARK  130  A    between atoms: _312  and  _315
REMARK  131  A    between atoms: _315  and  _316
REMARK  132  A    between atoms: _316  and  _317
REMARK  133  A    between atoms: _322  and  _324
REMARK  134  A    between atoms: _324  and  _325
REMARK  135  A    between atoms: _327  and  _329
REMARK  136  A    between atoms: _329  and  _330
REMARK  137  A    between atoms: _329  and  _332
REMARK  138  A    between atoms: _332  and  _333
REMARK  139  A    between atoms: _336  and  _338
REMARK  140  A    between atoms: _338  and  _339
REMARK  141  A    between atoms: _338  and  _341
REMARK  142  A    between atoms: _341  and  _342
REMARK  143  A    between atoms: _345  and  _347
REMARK  144  A    between atoms: _347  and  _348
REMARK  145  A    between atoms: _347  and  _350
REMARK  146  A    between atoms: _350  and  _351
REMARK  147  A    between atoms: _356  and  _358
REMARK  148  A    between atoms: _358  and  _359
REMARK  149  A    between atoms: _358  and  _361
REMARK  150  A    between atoms: _361  and  _362
REMARK  151  A    between atoms: _365  and  _367
REMARK  152  A    between atoms: _367  and  _368
REMARK  153  A    between atoms: _367  and  _370
REMARK  154  A    between atoms: _370  and  _371
REMARK  155  A    between atoms: _373  and  _375
REMARK  156  A    between atoms: _375  and  _376
REMARK  157  A    between atoms: _375  and  _378
REMARK  158  A    between atoms: _378  and  _379
REMARK  159  A    between atoms: _379  and  _380
REMARK  160  A    between atoms: _385  and  _387
REMARK  161  A    between atoms: _387  and  _388
REMARK  162  A    between atoms: _387  and  _390
REMARK  163  A    between atoms: _390  and  _391
REMARK  164  A    between atoms: _394  and  _396
REMARK  165  A    between atoms: _396  and  _397
REMARK  166  A    between atoms: _396  and  _399
REMARK  167  A    between atoms: _402  and  _404
REMARK  168  A    between atoms: _404  and  _405
REMARK  169  A    between atoms: _404  and  _407
REMARK  170  A    between atoms: _407  and  _408
REMARK  171  A    between atoms: _408  and  _409
REMARK  172  A    between atoms: _409  and  _410
REMARK  173  A    between atoms: _419  and  _421
REMARK  174  A    between atoms: _421  and  _422
REMARK  175  A    between atoms: _421  and  _424
REMARK  176  A    between atoms: _424  and  _425
REMARK  177  A    between atoms: _428  and  _430
REMARK  178  A    between atoms: _430  and  _431
REMARK  179  A    between atoms: _430  and  _433
REMARK  180  A    between atoms: _433  and  _434
REMARK  181  A    between atoms: _444  and  _446
REMARK  182  A    between atoms: _446  and  _447
REMARK  183  A    between atoms: _446  and  _449
REMARK  184  A    between atoms: _449  and  _450
REMARK  185  A    between atoms: _454  and  _455
REMARK  186  A    between atoms: _460  and  _462
REMARK  187  A    between atoms: _462  and  _463
REMARK  188  A    between atoms: _462  and  _465
REMARK  189  A    between atoms: _465  and  _466
REMARK  190  A    between atoms: _472  and  _473
REMARK  191  A    between atoms: _478  and  _480
REMARK  192  A    between atoms: _480  and  _481
REMARK  193  A    between atoms: _483  and  _485
REMARK  194  A    between atoms: _485  and  _486
REMARK  195  A    between atoms: _485  and  _488
REMARK  196  A    between atoms: _488  and  _489
REMARK  197  A    between atoms: _492  and  _494
REMARK  198  A    between atoms: _494  and  _495
REMARK  199  A    between atoms: _494  and  _497
REMARK  200  A    between atoms: _497  and  _498
REMARK  201  A    between atoms: _498  and  _499
REMARK  202  A    between atoms: _499  and  _500
REMARK  203  A    between atoms: _500  and  _501
REMARK  204  A    between atoms: _505  and  _507
REMARK  205  A    between atoms: _507  and  _508
REMARK  206  A    between atoms: _507  and  _510
REMARK  207  A    between atoms: _513  and  _515
REMARK  208  A    between atoms: _515  and  _516
REMARK  209  A    between atoms: _519  and  _521
REMARK  210  A    between atoms: _521  and  _522
REMARK  211  A    between atoms: _521  and  _524
REMARK  212  A    between atoms: _524  and  _525
REMARK  213  A    between atoms: _528  and  _530
REMARK  214  A    between atoms: _530  and  _531
REMARK  215  A    between atoms: _530  and  _533
REMARK  216  A    between atoms: _533  and  _534
REMARK  217  A    between atoms: _540  and  _541
REMARK  218  A    between atoms: _546  and  _548
REMARK  219  A    between atoms: _548  and  _549
REMARK  220  A    between atoms: _548  and  _551
REMARK  221  A    between atoms: _551  and  _552
REMARK  222  A    between atoms: _558  and  _560
REMARK  223  A    between atoms: _560  and  _561
REMARK  224  A    between atoms: _560  and  _563
REMARK  225  A    between atoms: _563  and  _564
REMARK  226  A    between atoms: _567  and  _569
REMARK  227  A    between atoms: _569  and  _570
REMARK  228  A    between atoms: _572  and  _574
REMARK  229  A    between atoms: _574  and  _575
REMARK  230  A    between atoms: _574  and  _577
REMARK  231  A    between atoms: _577  and  _578
REMARK  232  A    between atoms: _581  and  _583
REMARK  233  A    between atoms: _583  and  _584
REMARK  234  A    between atoms: _583  and  _586
REMARK  235  A    between atoms: _586  and  _587
REMARK  236  A    between atoms: _593  and  _595
REMARK  237  A    between atoms: _595  and  _596
REMARK  238  A    between atoms: _595  and  _598
REMARK  239  A    between atoms: _598  and  _599
REMARK  240  A    between atoms: _599  and  _600
REMARK  241  A    between atoms: _605  and  _607
REMARK  242  A    between atoms: _607  and  _608
REMARK  243  A    between atoms: _607  and  _610
REMARK  244  A    between atoms: _610  and  _611
REMARK  245  A    between atoms: _614  and  _616
REMARK  246  A    between atoms: _616  and  _617
REMARK  247  A    between atoms: _616  and  _619
REMARK  248  A    between atoms: _619  and  _620
REMARK  249  A    between atoms: _622  and  _624
REMARK  250  A    between atoms: _624  and  _625
REMARK  251  A    between atoms: _624  and  _627
REMARK  252  A    between atoms: _627  and  _628
REMARK  253  A    between atoms: _634  and  _636
REMARK  254  A    between atoms: _636  and  _637
REMARK  255  A    between atoms: _636  and  _639
REMARK  256  A    between atoms: _639  and  _640
REMARK  257  A    between atoms: _645  and  _646
REMARK  258  A    between atoms: _648  and  _650
REMARK  259  A    between atoms: _650  and  _651
REMARK  260  A    between atoms: _650  and  _653
REMARK  261  A    between atoms: _653  and  _654
REMARK                            x       y       z     vdW  Elec       q    Type
REMARK                         _______ _______ _______ _____ _____    ______ ____
ROOT
ATOM      1  O   HOH     1      36.123  -2.235 -49.302  0.00  0.00    +0.000 OA
ENDROOT
TORSDOF 0
REMARK  Name = ../refined-set-2016/4idn/4idn_pocket.pdb
REMARK  261 active torsions:
REMARK  status: ('A' for Active; 'I' for Inactive)
REMARK    1  A    between atoms: _1  and  _3
REMARK    2  A    between atoms: _3  and  _4
REMARK    3  A    between atoms: _3  and  _6
REMARK    4  A    between atoms: _9  and  _11
REMARK    5  A    between atoms: _11  and  _12
REMARK    6  A    between atoms: _15  and  _17
REMARK    7  A    between atoms: _17  and  _18
REMARK    8  A    between atoms: _20  and  _22
REMARK    9  A    between atoms: _22  and  _23
REMARK   10  A    between atoms: _26  and  _28
REMARK   11  A    between atoms: _28  and  _29
REMARK   12  A    between atoms: _28  and  _31
REMARK   13  A    between atoms: _31  and  _32
REMARK   14  A    between atoms: _38  and  _40
REMARK   15  A    between atoms: _40  and  _41
REMARK   16  A    between atoms: _40  and  _43
REMARK   17  A    between atoms: _43  and  _44
REMARK   18  A    between atoms: _44  and  _45
REMARK   19  A    between atoms: _45  and  _46
REMARK   20  A    between atoms: _55  and  _57
REMARK   21  A    between atoms: _57  and  _58
REMARK   22  A    between atoms: _57  and  _60
REMARK   23  A    between atoms: _60  and  _61
REMARK   24  A    between atoms: _61  and  _62
REMARK   25  A    between atoms: _62  and  _63
REMARK   26  A    between atoms: _63  and  _64
REMARK   27  A    between atoms: _68  and  _70
REMARK   28  A    between atoms: _70  and  _71
REMARK   29  A    between atoms: _73  and  _75
REMARK   30  A    between atoms: _75  and  _76
REMARK   31  A    between atoms: _75  and  _78
REMARK   32  A    between atoms: _78  and  _79
REMARK   33  A    between atoms: _79  and  _80
REMARK   34  A    between atoms: _80  and  _81
REMARK   35  A    between atoms: _81  and  _82
REMARK   36  A    between atoms: _86  and  _88
REMARK   37  A    between atoms: _88  and  _89
REMARK   38  A    between atoms: _88  and  _91
REMARK   39  A    between atoms: _91  and  _92
REMARK   40  A    between atoms: _94  and  _96
REMARK   41  A    between atoms: _96  and  _97
REMARK   42  A    between atoms: _96  and  _99
REMARK   43  A    between atoms: _99  and  _100
REMARK   44  A    between atoms: _106  and  _108
REMARK   45  A    between atoms: _108  and  _109
REMARK   46  A    between atoms: _108  and  _111
REMARK   47  A    between atoms: _111  and  _112
REMARK   48  A    between atoms: _115  and  _117
REMARK   49  A    between atoms: _117  and  _118
REMARK   50  A    between atoms: _117  and  _120
REMARK   51  A    between atoms: _120  and  _121
REMARK   52  A    between atoms: _121  and  _122
REMARK   53  A    between atoms: _124  and  _126
REMARK   54  A    between atoms: _126  and  _127
REMARK   55  A    between atoms: _126  and  _129
REMARK   56  A    between atoms: _129  and  _130
REMARK   57  A    between atoms: _133  and  _135
REMARK   58  A    between atoms: _135  and  _136
REMARK   59  A    between atoms: _135  and  _138
REMARK   60  A    between atoms: _138  and  _139
REMARK   61  A    between atoms: _145  and  _147
REMARK   62  A    between atoms: _147  and  _148
REMARK   63  A    between atoms: _147  and  _150
REMARK   64  A    between atoms: _150  and  _151
REMARK   65  A    between atoms: _154  and  _156
REMARK   66  A    between atoms: _156  and  _157
REMARK   67  A    between atoms: _156  and  _159
REMARK   68  A    between atoms: _159  and  _160
REMARK   69  A    between atoms: _166  and  _168
REMARK   70  A    between atoms: _168  and  _169
REMARK   71  A    between atoms: _168  and  _171
REMARK   72  A    between atoms: _171  and  _172
REMARK   73  A    between atoms: _174  and  _176
REMARK   74  A    between atoms: _176  and  _177
REMARK   75  A    between atoms: _176  and  _179
REMARK   76  A    between atoms: _179  and  _180
REMARK   77  A    between atoms: _190  and  _192
REMARK   78  A    between atoms: _192  and  _193
REMARK   79  A    between atoms: _192  and  _195
REMARK   80  A    between atoms: _195  and  _196
REMARK   81  A    between atoms: _196  and  _197
REMARK   82  A    between atoms: _197  and  _198
REMARK   83  A    between atoms: _207  and  _209
REMARK   84  A    between atoms: _209  and  _210
REMARK   85  A    between atoms: _212  and  _214
REMARK   86  A    between atoms: _214  and  _215
REMARK   87  A    between atoms: _217  and  _219
REMARK   88  A    between atoms: _219  and  _220
REMARK   89  A    between atoms: _219  and  _222
REMARK   90  A    between atoms: _222  and  _223
REMARK   91  A    between atoms: _225  and  _227
REMARK   92  A    between atoms: _227  and  _228
REMARK   93  A    between atoms: _227  and  _230
REMARK   94  A    between atoms: _230  and  _231
REMARK   95  A    between atoms: _231  and  _232
REMARK   96  A    between atoms: _235  and  _237
REMARK   97  A    between atoms: _237  and  _238
REMARK   98  A    between atoms: _237  and  _240
REMARK   99  A    between atoms: _240  and  _241
REMARK  100  A    between atoms: _241  and  _242
REMARK  101  A    between atoms: _242  and  _243
REMARK  102  A    between atoms: _252  and  _254
REMARK  103  A    between atoms: _254  and  _255
REMARK  104  A    between atoms: _254  and  _257
REMARK  105  A    between atoms: _257  and  _258
REMARK  106  A    between atoms: _258  and  _259
REMARK  107  A    between atoms: _262  and  _264
REMARK  108  A    between atoms: _264  and  _265
REMARK  109  A    between atoms: _264  and  _267
REMARK  110  A    between atoms: _267  and  _268
REMARK  111  A    between atoms: _271  and  _273
REMARK  112  A    between atoms: _273  and  _274
REMARK  113  A    between atoms: _273  and  _276
REMARK  114  A    between atoms: _276  and  _277
REMARK  115  A    between atoms: _280  and  _282
REMARK  116  A    between atoms: _282  and  _283
REMARK  117  A    between atoms: _282  and  _285
REMARK  118  A    between atoms: _285  and  _286
REMARK  119  A    between atoms: _286  and  _287
REMARK  120  A    between atoms: _292  and  _294
REMARK  121  A    between atoms: _294  and  _295
REMARK  122  A    between atoms: _294  and  _297
REMARK  123  A    between atoms: _297  and  _298
REMARK  124  A    between atoms: _301  and  _303
REMARK  125  A    between atoms: _303  and  _304
REMARK  126  A    between atoms: _303  and  _306
REMARK  127  A    between atoms: _306  and  _307
REMARK  128  A    between atoms: _310  and  _312
REMARK  129  A    between atoms: _312  and  _313
REMARK  130  A    between atoms: _312  and  _315
REMARK  131  A    between atoms: _315  and  _316
REMARK  132  A    between atoms: _316  and  _317
REMARK  133  A    between atoms: _322  and  _324
REMARK  134  A    between atoms: _324  and  _325
REMARK  135  A    between atoms: _327  and  _329
REMARK  136  A    between atoms: _329  and  _330
REMARK  137  A    between atoms: _329  and  _332
REMARK  138  A    between atoms: _332  and  _333
REMARK  139  A    between atoms: _336  and  _338
REMARK  140  A    between atoms: _338  and  _339
REMARK  141  A    between atoms: _338  and  _341
REMARK  142  A    between atoms: _341  and  _342
REMARK  143  A    between atoms: _345  and  _347
REMARK  144  A    between atoms: _347  and  _348
REMARK  145  A    between atoms: _347  and  _350
REMARK  146  A    between atoms: _350  and  _351
REMARK  147  A    between atoms: _356  and  _358
REMARK  148  A    between atoms: _358  and  _359
REMARK  149  A    between atoms: _358  and  _361
REMARK  150  A    between atoms: _361  and  _362
REMARK  151  A    between atoms: _365  and  _367
REMARK  152  A    between atoms: _367  and  _368
REMARK  153  A    between atoms: _367  and  _370
REMARK  154  A    between atoms: _370  and  _371
REMARK  155  A    between atoms: _373  and  _375
REMARK  156  A    between atoms: _375  and  _376
REMARK  157  A    between atoms: _375  and  _378
REMARK  158  A    between atoms: _378  and  _379
REMARK  159  A    between atoms: _379  and  _380
REMARK  160  A    between atoms: _385  and  _387
REMARK  161  A    between atoms: _387  and  _388
REMARK  162  A    between atoms: _387  and  _390
REMARK  163  A    between atoms: _390  and  _391
REMARK  164  A    between atoms: _394  and  _396
REMARK  165  A    between atoms: _396  and  _397
REMARK  166  A    between atoms: _396  and  _399
REMARK  167  A    between atoms: _402  and  _404
REMARK  168  A    between atoms: _404  and  _405
REMARK  169  A    between atoms: _404  and  _407
REMARK  170  A    between atoms: _407  and  _408
REMARK  171  A    between atoms: _408  and  _409
REMARK  172  A    between atoms: _409  and  _410
REMARK  173  A    between atoms: _419  and  _421
REMARK  174  A    between atoms: _421  and  _422
REMARK  175  A    between atoms: _421  and  _424
REMARK  176  A    between atoms: _424  and  _425
REMARK  177  A    between atoms: _428  and  _430
REMARK  178  A    between atoms: _430  and  _431
REMARK  179  A    between atoms: _430  and  _433
REMARK  180  A    between atoms: _433  and  _434
REMARK  181  A    between atoms: _444  and  _446
REMARK  182  A    between atoms: _446  and  _447
REMARK  183  A    between atoms: _446  and  _449
REMARK  184  A    between atoms: _449  and  _450
REMARK  185  A    between atoms: _454  and  _455
REMARK  186  A    between atoms: _460  and  _462
REMARK  187  A    between atoms: _462  and  _463
REMARK  188  A    between atoms: _462  and  _465
REMARK  189  A    between atoms: _465  and  _466
REMARK  190  A    between atoms: _472  and  _473
REMARK  191  A    between atoms: _478  and  _480
REMARK  192  A    between atoms: _480  and  _481
REMARK  193  A    between atoms: _483  and  _485
REMARK  194  A    between atoms: _485  and  _486
REMARK  195  A    between atoms: _485  and  _488
REMARK  196  A    between atoms: _488  and  _489
REMARK  197  A    between atoms: _492  and  _494
REMARK  198  A    between atoms: _494  and  _495
REMARK  199  A    between atoms: _494  and  _497
REMARK  200  A    between atoms: _497  and  _498
REMARK  201  A    between atoms: _498  and  _499
REMARK  202  A    between atoms: _499  and  _500
REMARK  203  A    between atoms: _500  and  _501
REMARK  204  A    between atoms: _505  and  _507
REMARK  205  A    between atoms: _507  and  _508
REMARK  206  A    between atoms: _507  and  _510
REMARK  207  A    between atoms: _513  and  _515
REMARK  208  A    between atoms: _515  and  _516
REMARK  209  A    between atoms: _519  and  _521
REMARK  210  A    between atoms: _521  and  _522
REMARK  211  A    between atoms: _521  and  _524
REMARK  212  A    between atoms: _524  and  _525
REMARK  213  A    between atoms: _528  and  _530
REMARK  214  A    between atoms: _530  and  _531
REMARK  215  A    between atoms: _530  and  _533
REMARK  216  A    between atoms: _533  and  _534
REMARK  217  A    between atoms: _540  and  _541
REMARK  218  A    between atoms: _546  and  _548
REMARK  219  A    between atoms: _548  and  _549
REMARK  220  A    between atoms: _548  and  _551
REMARK  221  A    between atoms: _551  and  _552
REMARK  222  A    between atoms: _558  and  _560
REMARK  223  A    between atoms: _560  and  _561
REMARK  224  A    between atoms: _560  and  _563
REMARK  225  A    between atoms: _563  and  _564
REMARK  226  A    between atoms: _567  and  _569
REMARK  227  A    between atoms: _569  and  _570
REMARK  228  A    between atoms: _572  and  _574
REMARK  229  A    between atoms: _574  and  _575
REMARK  230  A    between atoms: _574  and  _577
REMARK  231  A    between atoms: _577  and  _578
REMARK  232  A    between atoms: _581  and  _583
REMARK  233  A    between atoms: _583  and  _584
REMARK  234  A    between atoms: _583  and  _586
REMARK  235  A    between atoms: _586  and  _587
REMARK  236  A    between atoms: _593  and  _595
REMARK  237  A    between atoms: _595  and  _596
REMARK  238  A    between atoms: _595  and  _598
REMARK  239  A    between atoms: _598  and  _599
REMARK  240  A    between atoms: _599  and  _600
REMARK  241  A    between atoms: _605  and  _607
REMARK  242  A    between atoms: _607  and  _608
REMARK  243  A    between atoms: _607  and  _610
REMARK  244  A    between atoms: _610  and  _611
REMARK  245  A    between atoms: _614  and  _616
REMARK  246  A    between atoms: _616  and  _617
REMARK  247  A    between atoms: _616  and  _619
REMARK  248  A    between atoms: _619  and  _620
REMARK  249  A    between atoms: _622  and  _624
REMARK  250  A    between atoms: _624  and  _625
REMARK  251  A    between atoms: _624  and  _627
REMARK  252  A    between atoms: _627  and  _628
REMARK  253  A    between atoms: _634  and  _636
REMARK  254  A    between atoms: _636  and  _637
REMARK  255  A    between atoms: _636  and  _639
REMARK  256  A    between atoms: _639  and  _640
REMARK  257  A    between atoms: _645  and  _646
REMARK  258  A    between atoms: _648  and  _650
REMARK  259  A    between atoms: _650  and  _651
REMARK  260  A    between atoms: _650  and  _653
REMARK  261  A    between atoms: _653  and  _654
REMARK                            x       y       z     vdW  Elec       q    Type
REMARK                         _______ _______ _______ _____ _____    ______ ____
ROOT
ATOM      1  O   HOH     1      26.999  -6.392 -46.115  0.00  0.00    +0.000 OA
ENDROOT
TORSDOF 0
REMARK  Name = ../refined-set-2016/4idn/4idn_pocket.pdb
REMARK  261 active torsions:
REMARK  status: ('A' for Active; 'I' for Inactive)
REMARK    1  A    between atoms: _1  and  _3
REMARK    2  A    between atoms: _3  and  _4
REMARK    3  A    between atoms: _3  and  _6
REMARK    4  A    between atoms: _9  and  _11
REMARK    5  A    between atoms: _11  and  _12
REMARK    6  A    between atoms: _15  and  _17
REMARK    7  A    between atoms: _17  and  _18
REMARK    8  A    between atoms: _20  and  _22
REMARK    9  A    between atoms: _22  and  _23
REMARK   10  A    between atoms: _26  and  _28
REMARK   11  A    between atoms: _28  and  _29
REMARK   12  A    between atoms: _28  and  _31
REMARK   13  A    between atoms: _31  and  _32
REMARK   14  A    between atoms: _38  and  _40
REMARK   15  A    between atoms: _40  and  _41
REMARK   16  A    between atoms: _40  and  _43
REMARK   17  A    between atoms: _43  and  _44
REMARK   18  A    between atoms: _44  and  _45
REMARK   19  A    between atoms: _45  and  _46
REMARK   20  A    between atoms: _55  and  _57
REMARK   21  A    between atoms: _57  and  _58
REMARK   22  A    between atoms: _57  and  _60
REMARK   23  A    between atoms: _60  and  _61
REMARK   24  A    between atoms: _61  and  _62
REMARK   25  A    between atoms: _62  and  _63
REMARK   26  A    between atoms: _63  and  _64
REMARK   27  A    between atoms: _68  and  _70
REMARK   28  A    between atoms: _70  and  _71
REMARK   29  A    between atoms: _73  and  _75
REMARK   30  A    between atoms: _75  and  _76
REMARK   31  A    between atoms: _75  and  _78
REMARK   32  A    between atoms: _78  and  _79
REMARK   33  A    between atoms: _79  and  _80
REMARK   34  A    between atoms: _80  and  _81
REMARK   35  A    between atoms: _81  and  _82
REMARK   36  A    between atoms: _86  and  _88
REMARK   37  A    between atoms: _88  and  _89
REMARK   38  A    between atoms: _88  and  _91
REMARK   39  A    between atoms: _91  and  _92
REMARK   40  A    between atoms: _94  and  _96
REMARK   41  A    between atoms: _96  and  _97
REMARK   42  A    between atoms: _96  and  _99
REMARK   43  A    between atoms: _99  and  _100
REMARK   44  A    between atoms: _106  and  _108
REMARK   45  A    between atoms: _108  and  _109
REMARK   46  A    between atoms: _108  and  _111
REMARK   47  A    between atoms: _111  and  _112
REMARK   48  A    between atoms: _115  and  _117
REMARK   49  A    between atoms: _117  and  _118
REMARK   50  A    between atoms: _117  and  _120
REMARK   51  A    between atoms: _120  and  _121
REMARK   52  A    between atoms: _121  and  _122
REMARK   53  A    between atoms: _124  and  _126
REMARK   54  A    between atoms: _126  and  _127
REMARK   55  A    between atoms: _126  and  _129
REMARK   56  A    between atoms: _129  and  _130
REMARK   57  A    between atoms: _133  and  _135
REMARK   58  A    between atoms: _135  and  _136
REMARK   59  A    between atoms: _135  and  _138
REMARK   60  A    between atoms: _138  and  _139
REMARK   61  A    between atoms: _145  and  _147
REMARK   62  A    between atoms: _147  and  _148
REMARK   63  A    between atoms: _147  and  _150
REMARK   64  A    between atoms: _150  and  _151
REMARK   65  A    between atoms: _154  and  _156
REMARK   66  A    between atoms: _156  and  _157
REMARK   67  A    between atoms: _156  and  _159
REMARK   68  A    between atoms: _159  and  _160
REMARK   69  A    between atoms: _166  and  _168
REMARK   70  A    between atoms: _168  and  _169
REMARK   71  A    between atoms: _168  and  _171
REMARK   72  A    between atoms: _171  and  _172
REMARK   73  A    between atoms: _174  and  _176
REMARK   74  A    between atoms: _176  and  _177
REMARK   75  A    between atoms: _176  and  _179
REMARK   76  A    between atoms: _179  and  _180
REMARK   77  A    between atoms: _190  and  _192
REMARK   78  A    between atoms: _192  and  _193
REMARK   79  A    between atoms: _192  and  _195
REMARK   80  A    between atoms: _195  and  _196
REMARK   81  A    between atoms: _196  and  _197
REMARK   82  A    between atoms: _197  and  _198
REMARK   83  A    between atoms: _207  and  _209
REMARK   84  A    between atoms: _209  and  _210
REMARK   85  A    between atoms: _212  and  _214
REMARK   86  A    between atoms: _214  and  _215
REMARK   87  A    between atoms: _217  and  _219
REMARK   88  A    between atoms: _219  and  _220
REMARK   89  A    between atoms: _219  and  _222
REMARK   90  A    between atoms: _222  and  _223
REMARK   91  A    between atoms: _225  and  _227
REMARK   92  A    between atoms: _227  and  _228
REMARK   93  A    between atoms: _227  and  _230
REMARK   94  A    between atoms: _230  and  _231
REMARK   95  A    between atoms: _231  and  _232
REMARK   96  A    between atoms: _235  and  _237
REMARK   97  A    between atoms: _237  and  _238
REMARK   98  A    between atoms: _237  and  _240
REMARK   99  A    between atoms: _240  and  _241
REMARK  100  A    between atoms: _241  and  _242
REMARK  101  A    between atoms: _242  and  _243
REMARK  102  A    between atoms: _252  and  _254
REMARK  103  A    between atoms: _254  and  _255
REMARK  104  A    between atoms: _254  and  _257
REMARK  105  A    between atoms: _257  and  _258
REMARK  106  A    between atoms: _258  and  _259
REMARK  107  A    between atoms: _262  and  _264
REMARK  108  A    between atoms: _264  and  _265
REMARK  109  A    between atoms: _264  and  _267
REMARK  110  A    between atoms: _267  and  _268
REMARK  111  A    between atoms: _271  and  _273
REMARK  112  A    between atoms: _273  and  _274
REMARK  113  A    between atoms: _273  and  _276
REMARK  114  A    between atoms: _276  and  _277
REMARK  115  A    between atoms: _280  and  _282
REMARK  116  A    between atoms: _282  and  _283
REMARK  117  A    between atoms: _282  and  _285
REMARK  118  A    between atoms: _285  and  _286
REMARK  119  A    between atoms: _286  and  _287
REMARK  120  A    between atoms: _292  and  _294
REMARK  121  A    between atoms: _294  and  _295
REMARK  122  A    between atoms: _294  and  _297
REMARK  123  A    between atoms: _297  and  _298
REMARK  124  A    between atoms: _301  and  _303
REMARK  125  A    between atoms: _303  and  _304
REMARK  126  A    between atoms: _303  and  _306
REMARK  127  A    between atoms: _306  and  _307
REMARK  128  A    between atoms: _310  and  _312
REMARK  129  A    between atoms: _312  and  _313
REMARK  130  A    between atoms: _312  and  _315
REMARK  131  A    between atoms: _315  and  _316
REMARK  132  A    between atoms: _316  and  _317
REMARK  133  A    between atoms: _322  and  _324
REMARK  134  A    between atoms: _324  and  _325
REMARK  135  A    between atoms: _327  and  _329
REMARK  136  A    between atoms: _329  and  _330
REMARK  137  A    between atoms: _329  and  _332
REMARK  138  A    between atoms: _332  and  _333
REMARK  139  A    between atoms: _336  and  _338
REMARK  140  A    between atoms: _338  and  _339
REMARK  141  A    between atoms: _338  and  _341
REMARK  142  A    between atoms: _341  and  _342
REMARK  143  A    between atoms: _345  and  _347
REMARK  144  A    between atoms: _347  and  _348
REMARK  145  A    between atoms: _347  and  _350
REMARK  146  A    between atoms: _350  and  _351
REMARK  147  A    between atoms: _356  and  _358
REMARK  148  A    between atoms: _358  and  _359
REMARK  149  A    between atoms: _358  and  _361
REMARK  150  A    between atoms: _361  and  _362
REMARK  151  A    between atoms: _365  and  _367
REMARK  152  A    between atoms: _367  and  _368
REMARK  153  A    between atoms: _367  and  _370
REMARK  154  A    between atoms: _370  and  _371
REMARK  155  A    between atoms: _373  and  _375
REMARK  156  A    between atoms: _375  and  _376
REMARK  157  A    between atoms: _375  and  _378
REMARK  158  A    between atoms: _378  and  _379
REMARK  159  A    between atoms: _379  and  _380
REMARK  160  A    between atoms: _385  and  _387
REMARK  161  A    between atoms: _387  and  _388
REMARK  162  A    between atoms: _387  and  _390
REMARK  163  A    between atoms: _390  and  _391
REMARK  164  A    between atoms: _394  and  _396
REMARK  165  A    between atoms: _396  and  _397
REMARK  166  A    between atoms: _396  and  _399
REMARK  167  A    between atoms: _402  and  _404
REMARK  168  A    between atoms: _404  and  _405
REMARK  169  A    between atoms: _404  and  _407
REMARK  170  A    between atoms: _407  and  _408
REMARK  171  A    between atoms: _408  and  _409
REMARK  172  A    between atoms: _409  and  _410
REMARK  173  A    between atoms: _419  and  _421
REMARK  174  A    between atoms: _421  and  _422
REMARK  175  A    between atoms: _421  and  _424
REMARK  176  A    between atoms: _424  and  _425
REMARK  177  A    between atoms: _428  and  _430
REMARK  178  A    between atoms: _430  and  _431
REMARK  179  A    between atoms: _430  and  _433
REMARK  180  A    between atoms: _433  and  _434
REMARK  181  A    between atoms: _444  and  _446
REMARK  182  A    between atoms: _446  and  _447
REMARK  183  A    between atoms: _446  and  _449
REMARK  184  A    between atoms: _449  and  _450
REMARK  185  A    between atoms: _454  and  _455
REMARK  186  A    between atoms: _460  and  _462
REMARK  187  A    between atoms: _462  and  _463
REMARK  188  A    between atoms: _462  and  _465
REMARK  189  A    between atoms: _465  and  _466
REMARK  190  A    between atoms: _472  and  _473
REMARK  191  A    between atoms: _478  and  _480
REMARK  192  A    between atoms: _480  and  _481
REMARK  193  A    between atoms: _483  and  _485
REMARK  194  A    between atoms: _485  and  _486
REMARK  195  A    between atoms: _485  and  _488
REMARK  196  A    between atoms: _488  and  _489
REMARK  197  A    between atoms: _492  and  _494
REMARK  198  A    between atoms: _494  and  _495
REMARK  199  A    between atoms: _494  and  _497
REMARK  200  A    between atoms: _497  and  _498
REMARK  201  A    between atoms: _498  and  _499
REMARK  202  A    between atoms: _499  and  _500
REMARK  203  A    between atoms: _500  and  _501
REMARK  204  A    between atoms: _505  and  _507
REMARK  205  A    between atoms: _507  and  _508
REMARK  206  A    between atoms: _507  and  _510
REMARK  207  A    between atoms: _513  and  _515
REMARK  208  A    between atoms: _515  and  _516
REMARK  209  A    between atoms: _519  and  _521
REMARK  210  A    between atoms: _521  and  _522
REMARK  211  A    between atoms: _521  and  _524
REMARK  212  A    between atoms: _524  and  _525
REMARK  213  A    between atoms: _528  and  _530
REMARK  214  A    between atoms: _530  and  _531
REMARK  215  A    between atoms: _530  and  _533
REMARK  216  A    between atoms: _533  and  _534
REMARK  217  A    between atoms: _540  and  _541
REMARK  218  A    between atoms: _546  and  _548
REMARK  219  A    between atoms: _548  and  _549
REMARK  220  A    between atoms: _548  and  _551
REMARK  221  A    between atoms: _551  and  _552
REMARK  222  A    between atoms: _558  and  _560
REMARK  223  A    between atoms: _560  and  _561
REMARK  224  A    between atoms: _560  and  _563
REMARK  225  A    between atoms: _563  and  _564
REMARK  226  A    between atoms: _567  and  _569
REMARK  227  A    between atoms: _569  and  _570
REMARK  228  A    between atoms: _572  and  _574
REMARK  229  A    between atoms: _574  and  _575
REMARK  230  A    between atoms: _574  and  _577
REMARK  231  A    between atoms: _577  and  _578
REMARK  232  A    between atoms: _581  and  _583
REMARK  233  A    between atoms: _583  and  _584
REMARK  234  A    between atoms: _583  and  _586
REMARK  235  A    between atoms: _586  and  _587
REMARK  236  A    between atoms: _593  and  _595
REMARK  237  A    between atoms: _595  and  _596
REMARK  238  A    between atoms: _595  and  _598
REMARK  239  A    between atoms: _598  and  _599
REMARK  240  A    between atoms: _599  and  _600
REMARK  241  A    between atoms: _605  and  _607
REMARK  242  A    between atoms: _607  and  _608
REMARK  243  A    between atoms: _607  and  _610
REMARK  244  A    between atoms: _610  and  _611
REMARK  245  A    between atoms: _614  and  _616
REMARK  246  A    between atoms: _616  and  _617
REMARK  247  A    between atoms: _616  and  _619
REMARK  248  A    between atoms: _619  and  _620
REMARK  249  A    between atoms: _622  and  _624
REMARK  250  A    between atoms: _624  and  _625
REMARK  251  A    between atoms: _624  and  _627
REMARK  252  A    between atoms: _627  and  _628
REMARK  253  A    between atoms: _634  and  _636
REMARK  254  A    between atoms: _636  and  _637
REMARK  255  A    between atoms: _636  and  _639
REMARK  256  A    between atoms: _639  and  _640
REMARK  257  A    between atoms: _645  and  _646
REMARK  258  A    between atoms: _648  and  _650
REMARK  259  A    between atoms: _650  and  _651
REMARK  260  A    between atoms: _650  and  _653
REMARK  261  A    between atoms: _653  and  _654
REMARK                            x       y       z     vdW  Elec       q    Type
REMARK                         _______ _______ _______ _____ _____    ______ ____
ROOT
ATOM      1  O   HOH     1      19.030  -3.549 -55.114  0.00  0.00    +0.000 OA
ENDROOT
TORSDOF 0
REMARK  Name = ../refined-set-2016/4idn/4idn_pocket.pdb
REMARK  261 active torsions:
REMARK  status: ('A' for Active; 'I' for Inactive)
REMARK    1  A    between atoms: _1  and  _3
REMARK    2  A    between atoms: _3  and  _4
REMARK    3  A    between atoms: _3  and  _6
REMARK    4  A    between atoms: _9  and  _11
REMARK    5  A    between atoms: _11  and  _12
REMARK    6  A    between atoms: _15  and  _17
REMARK    7  A    between atoms: _17  and  _18
REMARK    8  A    between atoms: _20  and  _22
REMARK    9  A    between atoms: _22  and  _23
REMARK   10  A    between atoms: _26  and  _28
REMARK   11  A    between atoms: _28  and  _29
REMARK   12  A    between atoms: _28  and  _31
REMARK   13  A    between atoms: _31  and  _32
REMARK   14  A    between atoms: _38  and  _40
REMARK   15  A    between atoms: _40  and  _41
REMARK   16  A    between atoms: _40  and  _43
REMARK   17  A    between atoms: _43  and  _44
REMARK   18  A    between atoms: _44  and  _45
REMARK   19  A    between atoms: _45  and  _46
REMARK   20  A    between atoms: _55  and  _57
REMARK   21  A    between atoms: _57  and  _58
REMARK   22  A    between atoms: _57  and  _60
REMARK   23  A    between atoms: _60  and  _61
REMARK   24  A    between atoms: _61  and  _62
REMARK   25  A    between atoms: _62  and  _63
REMARK   26  A    between atoms: _63  and  _64
REMARK   27  A    between atoms: _68  and  _70
REMARK   28  A    between atoms: _70  and  _71
REMARK   29  A    between atoms: _73  and  _75
REMARK   30  A    between atoms: _75  and  _76
REMARK   31  A    between atoms: _75  and  _78
REMARK   32  A    between atoms: _78  and  _79
REMARK   33  A    between atoms: _79  and  _80
REMARK   34  A    between atoms: _80  and  _81
REMARK   35  A    between atoms: _81  and  _82
REMARK   36  A    between atoms: _86  and  _88
REMARK   37  A    between atoms: _88  and  _89
REMARK   38  A    between atoms: _88  and  _91
REMARK   39  A    between atoms: _91  and  _92
REMARK   40  A    between atoms: _94  and  _96
REMARK   41  A    between atoms: _96  and  _97
REMARK   42  A    between atoms: _96  and  _99
REMARK   43  A    between atoms: _99  and  _100
REMARK   44  A    between atoms: _106  and  _108
REMARK   45  A    between atoms: _108  and  _109
REMARK   46  A    between atoms: _108  and  _111
REMARK   47  A    between atoms: _111  and  _112
REMARK   48  A    between atoms: _115  and  _117
REMARK   49  A    between atoms: _117  and  _118
REMARK   50  A    between atoms: _117  and  _120
REMARK   51  A    between atoms: _120  and  _121
REMARK   52  A    between atoms: _121  and  _122
REMARK   53  A    between atoms: _124  and  _126
REMARK   54  A    between atoms: _126  and  _127
REMARK   55  A    between atoms: _126  and  _129
REMARK   56  A    between atoms: _129  and  _130
REMARK   57  A    between atoms: _133  and  _135
REMARK   58  A    between atoms: _135  and  _136
REMARK   59  A    between atoms: _135  and  _138
REMARK   60  A    between atoms: _138  and  _139
REMARK   61  A    between atoms: _145  and  _147
REMARK   62  A    between atoms: _147  and  _148
REMARK   63  A    between atoms: _147  and  _150
REMARK   64  A    between atoms: _150  and  _151
REMARK   65  A    between atoms: _154  and  _156
REMARK   66  A    between atoms: _156  and  _157
REMARK   67  A    between atoms: _156  and  _159
REMARK   68  A    between atoms: _159  and  _160
REMARK   69  A    between atoms: _166  and  _168
REMARK   70  A    between atoms: _168  and  _169
REMARK   71  A    between atoms: _168  and  _171
REMARK   72  A    between atoms: _171  and  _172
REMARK   73  A    between atoms: _174  and  _176
REMARK   74  A    between atoms: _176  and  _177
REMARK   75  A    between atoms: _176  and  _179
REMARK   76  A    between atoms: _179  and  _180
REMARK   77  A    between atoms: _190  and  _192
REMARK   78  A    between atoms: _192  and  _193
REMARK   79  A    between atoms: _192  and  _195
REMARK   80  A    between atoms: _195  and  _196
REMARK   81  A    between atoms: _196  and  _197
REMARK   82  A    between atoms: _197  and  _198
REMARK   83  A    between atoms: _207  and  _209
REMARK   84  A    between atoms: _209  and  _210
REMARK   85  A    between atoms: _212  and  _214
REMARK   86  A    between atoms: _214  and  _215
REMARK   87  A    between atoms: _217  and  _219
REMARK   88  A    between atoms: _219  and  _220
REMARK   89  A    between atoms: _219  and  _222
REMARK   90  A    between atoms: _222  and  _223
REMARK   91  A    between atoms: _225  and  _227
REMARK   92  A    between atoms: _227  and  _228
REMARK   93  A    between atoms: _227  and  _230
REMARK   94  A    between atoms: _230  and  _231
REMARK   95  A    between atoms: _231  and  _232
REMARK   96  A    between atoms: _235  and  _237
REMARK   97  A    between atoms: _237  and  _238
REMARK   98  A    between atoms: _237  and  _240
REMARK   99  A    between atoms: _240  and  _241
REMARK  100  A    between atoms: _241  and  _242
REMARK  101  A    between atoms: _242  and  _243
REMARK  102  A    between atoms: _252  and  _254
REMARK  103  A    between atoms: _254  and  _255
REMARK  104  A    between atoms: _254  and  _257
REMARK  105  A    between atoms: _257  and  _258
REMARK  106  A    between atoms: _258  and  _259
REMARK  107  A    between atoms: _262  and  _264
REMARK  108  A    between atoms: _264  and  _265
REMARK  109  A    between atoms: _264  and  _267
REMARK  110  A    between atoms: _267  and  _268
REMARK  111  A    between atoms: _271  and  _273
REMARK  112  A    between atoms: _273  and  _274
REMARK  113  A    between atoms: _273  and  _276
REMARK  114  A    between atoms: _276  and  _277
REMARK  115  A    between atoms: _280  and  _282
REMARK  116  A    between atoms: _282  and  _283
REMARK  117  A    between atoms: _282  and  _285
REMARK  118  A    between atoms: _285  and  _286
REMARK  119  A    between atoms: _286  and  _287
REMARK  120  A    between atoms: _292  and  _294
REMARK  121  A    between atoms: _294  and  _295
REMARK  122  A    between atoms: _294  and  _297
REMARK  123  A    between atoms: _297  and  _298
REMARK  124  A    between atoms: _301  and  _303
REMARK  125  A    between atoms: _303  and  _304
REMARK  126  A    between atoms: _303  and  _306
REMARK  127  A    between atoms: _306  and  _307
REMARK  128  A    between atoms: _310  and  _312
REMARK  129  A    between atoms: _312  and  _313
REMARK  130  A    between atoms: _312  and  _315
REMARK  131  A    between atoms: _315  and  _316
REMARK  132  A    between atoms: _316  and  _317
REMARK  133  A    between atoms: _322  and  _324
REMARK  134  A    between atoms: _324  and  _325
REMARK  135  A    between atoms: _327  and  _329
REMARK  136  A    between atoms: _329  and  _330
REMARK  137  A    between atoms: _329  and  _332
REMARK  138  A    between atoms: _332  and  _333
REMARK  139  A    between atoms: _336  and  _338
REMARK  140  A    between atoms: _338  and  _339
REMARK  141  A    between atoms: _338  and  _341
REMARK  142  A    between atoms: _341  and  _342
REMARK  143  A    between atoms: _345  and  _347
REMARK  144  A    between atoms: _347  and  _348
REMARK  145  A    between atoms: _347  and  _350
REMARK  146  A    between atoms: _350  and  _351
REMARK  147  A    between atoms: _356  and  _358
REMARK  148  A    between atoms: _358  and  _359
REMARK  149  A    between atoms: _358  and  _361
REMARK  150  A    between atoms: _361  and  _362
REMARK  151  A    between atoms: _365  and  _367
REMARK  152  A    between atoms: _367  and  _368
REMARK  153  A    between atoms: _367  and  _370
REMARK  154  A    between atoms: _370  and  _371
REMARK  155  A    between atoms: _373  and  _375
REMARK  156  A    between atoms: _375  and  _376
REMARK  157  A    between atoms: _375  and  _378
REMARK  158  A    between atoms: _378  and  _379
REMARK  159  A    between atoms: _379  and  _380
REMARK  160  A    between atoms: _385  and  _387
REMARK  161  A    between atoms: _387  and  _388
REMARK  162  A    between atoms: _387  and  _390
REMARK  163  A    between atoms: _390  and  _391
REMARK  164  A    between atoms: _394  and  _396
REMARK  165  A    between atoms: _396  and  _397
REMARK  166  A    between atoms: _396  and  _399
REMARK  167  A    between atoms: _402  and  _404
REMARK  168  A    between atoms: _404  and  _405
REMARK  169  A    between atoms: _404  and  _407
REMARK  170  A    between atoms: _407  and  _408
REMARK  171  A    between atoms: _408  and  _409
REMARK  172  A    between atoms: _409  and  _410
REMARK  173  A    between atoms: _419  and  _421
REMARK  174  A    between atoms: _421  and  _422
REMARK  175  A    between atoms: _421  and  _424
REMARK  176  A    between atoms: _424  and  _425
REMARK  177  A    between atoms: _428  and  _430
REMARK  178  A    between atoms: _430  and  _431
REMARK  179  A    between atoms: _430  and  _433
REMARK  180  A    between atoms: _433  and  _434
REMARK  181  A    between atoms: _444  and  _446
REMARK  182  A    between atoms: _446  and  _447
REMARK  183  A    between atoms: _446  and  _449
REMARK  184  A    between atoms: _449  and  _450
REMARK  185  A    between atoms: _454  and  _455
REMARK  186  A    between atoms: _460  and  _462
REMARK  187  A    between atoms: _462  and  _463
REMARK  188  A    between atoms: _462  and  _465
REMARK  189  A    between atoms: _465  and  _466
REMARK  190  A    between atoms: _472  and  _473
REMARK  191  A    between atoms: _478  and  _480
REMARK  192  A    between atoms: _480  and  _481
REMARK  193  A    between atoms: _483  and  _485
REMARK  194  A    between atoms: _485  and  _486
REMARK  195  A    between atoms: _485  and  _488
REMARK  196  A    between atoms: _488  and  _489
REMARK  197  A    between atoms: _492  and  _494
REMARK  198  A    between atoms: _494  and  _495
REMARK  199  A    between atoms: _494  and  _497
REMARK  200  A    between atoms: _497  and  _498
REMARK  201  A    between atoms: _498  and  _499
REMARK  202  A    between atoms: _499  and  _500
REMARK  203  A    between atoms: _500  and  _501
REMARK  204  A    between atoms: _505  and  _507
REMARK  205  A    between atoms: _507  and  _508
REMARK  206  A    between atoms: _507  and  _510
REMARK  207  A    between atoms: _513  and  _515
REMARK  208  A    between atoms: _515  and  _516
REMARK  209  A    between atoms: _519  and  _521
REMARK  210  A    between atoms: _521  and  _522
REMARK  211  A    between atoms: _521  and  _524
REMARK  212  A    between atoms: _524  and  _525
REMARK  213  A    between atoms: _528  and  _530
REMARK  214  A    between atoms: _530  and  _531
REMARK  215  A    between atoms: _530  and  _533
REMARK  216  A    between atoms: _533  and  _534
REMARK  217  A    between atoms: _540  and  _541
REMARK  218  A    between atoms: _546  and  _548
REMARK  219  A    between atoms: _548  and  _549
REMARK  220  A    between atoms: _548  and  _551
REMARK  221  A    between atoms: _551  and  _552
REMARK  222  A    between atoms: _558  and  _560
REMARK  223  A    between atoms: _560  and  _561
REMARK  224  A    between atoms: _560  and  _563
REMARK  225  A    between atoms: _563  and  _564
REMARK  226  A    between atoms: _567  and  _569
REMARK  227  A    between atoms: _569  and  _570
REMARK  228  A    between atoms: _572  and  _574
REMARK  229  A    between atoms: _574  and  _575
REMARK  230  A    between atoms: _574  and  _577
REMARK  231  A    between atoms: _577  and  _578
REMARK  232  A    between atoms: _581  and  _583
REMARK  233  A    between atoms: _583  and  _584
REMARK  234  A    between atoms: _583  and  _586
REMARK  235  A    between atoms: _586  and  _587
REMARK  236  A    between atoms: _593  and  _595
REMARK  237  A    between atoms: _595  and  _596
REMARK  238  A    between atoms: _595  and  _598
REMARK  239  A    between atoms: _598  and  _599
REMARK  240  A    between atoms: _599  and  _600
REMARK  241  A    between atoms: _605  and  _607
REMARK  242  A    between atoms: _607  and  _608
REMARK  243  A    between atoms: _607  and  _610
REMARK  244  A    between atoms: _610  and  _611
REMARK  245  A    between atoms: _614  and  _616
REMARK  246  A    between atoms: _616  and  _617
REMARK  247  A    between atoms: _616  and  _619
REMARK  248  A    between atoms: _619  and  _620
REMARK  249  A    between atoms: _622  and  _624
REMARK  250  A    between atoms: _624  and  _625
REMARK  251  A    between atoms: _624  and  _627
REMARK  252  A    between atoms: _627  and  _628
REMARK  253  A    between atoms: _634  and  _636
REMARK  254  A    between atoms: _636  and  _637
REMARK  255  A    between atoms: _636  and  _639
REMARK  256  A    between atoms: _639  and  _640
REMARK  257  A    between atoms: _645  and  _646
REMARK  258  A    between atoms: _648  and  _650
REMARK  259  A    between atoms: _650  and  _651
REMARK  260  A    between atoms: _650  and  _653
REMARK  261  A    between atoms: _653  and  _654
REMARK                            x       y       z     vdW  Elec       q    Type
REMARK                         _______ _______ _______ _____ _____    ______ ____
ROOT
ATOM      1  O   HOH     1      16.953  -7.317 -43.087  0.00  0.00    +0.000 OA
ENDROOT
TORSDOF 0
REMARK  Name = ../refined-set-2016/4idn/4idn_pocket.pdb
REMARK  261 active torsions:
REMARK  status: ('A' for Active; 'I' for Inactive)
REMARK    1  A    between atoms: _1  and  _3
REMARK    2  A    between atoms: _3  and  _4
REMARK    3  A    between atoms: _3  and  _6
REMARK    4  A    between atoms: _9  and  _11
REMARK    5  A    between atoms: _11  and  _12
REMARK    6  A    between atoms: _15  and  _17
REMARK    7  A    between atoms: _17  and  _18
REMARK    8  A    between atoms: _20  and  _22
REMARK    9  A    between atoms: _22  and  _23
REMARK   10  A    between atoms: _26  and  _28
REMARK   11  A    between atoms: _28  and  _29
REMARK   12  A    between atoms: _28  and  _31
REMARK   13  A    between atoms: _31  and  _32
REMARK   14  A    between atoms: _38  and  _40
REMARK   15  A    between atoms: _40  and  _41
REMARK   16  A    between atoms: _40  and  _43
REMARK   17  A    between atoms: _43  and  _44
REMARK   18  A    between atoms: _44  and  _45
REMARK   19  A    between atoms: _45  and  _46
REMARK   20  A    between atoms: _55  and  _57
REMARK   21  A    between atoms: _57  and  _58
REMARK   22  A    between atoms: _57  and  _60
REMARK   23  A    between atoms: _60  and  _61
REMARK   24  A    between atoms: _61  and  _62
REMARK   25  A    between atoms: _62  and  _63
REMARK   26  A    between atoms: _63  and  _64
REMARK   27  A    between atoms: _68  and  _70
REMARK   28  A    between atoms: _70  and  _71
REMARK   29  A    between atoms: _73  and  _75
REMARK   30  A    between atoms: _75  and  _76
REMARK   31  A    between atoms: _75  and  _78
REMARK   32  A    between atoms: _78  and  _79
REMARK   33  A    between atoms: _79  and  _80
REMARK   34  A    between atoms: _80  and  _81
REMARK   35  A    between atoms: _81  and  _82
REMARK   36  A    between atoms: _86  and  _88
REMARK   37  A    between atoms: _88  and  _89
REMARK   38  A    between atoms: _88  and  _91
REMARK   39  A    between atoms: _91  and  _92
REMARK   40  A    between atoms: _94  and  _96
REMARK   41  A    between atoms: _96  and  _97
REMARK   42  A    between atoms: _96  and  _99
REMARK   43  A    between atoms: _99  and  _100
REMARK   44  A    between atoms: _106  and  _108
REMARK   45  A    between atoms: _108  and  _109
REMARK   46  A    between atoms: _108  and  _111
REMARK   47  A    between atoms: _111  and  _112
REMARK   48  A    between atoms: _115  and  _117
REMARK   49  A    between atoms: _117  and  _118
REMARK   50  A    between atoms: _117  and  _120
REMARK   51  A    between atoms: _120  and  _121
REMARK   52  A    between atoms: _121  and  _122
REMARK   53  A    between atoms: _124  and  _126
REMARK   54  A    between atoms: _126  and  _127
REMARK   55  A    between atoms: _126  and  _129
REMARK   56  A    between atoms: _129  and  _130
REMARK   57  A    between atoms: _133  and  _135
REMARK   58  A    between atoms: _135  and  _136
REMARK   59  A    between atoms: _135  and  _138
REMARK   60  A    between atoms: _138  and  _139
REMARK   61  A    between atoms: _145  and  _147
REMARK   62  A    between atoms: _147  and  _148
REMARK   63  A    between atoms: _147  and  _150
REMARK   64  A    between atoms: _150  and  _151
REMARK   65  A    between atoms: _154  and  _156
REMARK   66  A    between atoms: _156  and  _157
REMARK   67  A    between atoms: _156  and  _159
REMARK   68  A    between atoms: _159  and  _160
REMARK   69  A    between atoms: _166  and  _168
REMARK   70  A    between atoms: _168  and  _169
REMARK   71  A    between atoms: _168  and  _171
REMARK   72  A    between atoms: _171  and  _172
REMARK   73  A    between atoms: _174  and  _176
REMARK   74  A    between atoms: _176  and  _177
REMARK   75  A    between atoms: _176  and  _179
REMARK   76  A    between atoms: _179  and  _180
REMARK   77  A    between atoms: _190  and  _192
REMARK   78  A    between atoms: _192  and  _193
REMARK   79  A    between atoms: _192  and  _195
REMARK   80  A    between atoms: _195  and  _196
REMARK   81  A    between atoms: _196  and  _197
REMARK   82  A    between atoms: _197  and  _198
REMARK   83  A    between atoms: _207  and  _209
REMARK   84  A    between atoms: _209  and  _210
REMARK   85  A    between atoms: _212  and  _214
REMARK   86  A    between atoms: _214  and  _215
REMARK   87  A    between atoms: _217  and  _219
REMARK   88  A    between atoms: _219  and  _220
REMARK   89  A    between atoms: _219  and  _222
REMARK   90  A    between atoms: _222  and  _223
REMARK   91  A    between atoms: _225  and  _227
REMARK   92  A    between atoms: _227  and  _228
REMARK   93  A    between atoms: _227  and  _230
REMARK   94  A    between atoms: _230  and  _231
REMARK   95  A    between atoms: _231  and  _232
REMARK   96  A    between atoms: _235  and  _237
REMARK   97  A    between atoms: _237  and  _238
REMARK   98  A    between atoms: _237  and  _240
REMARK   99  A    between atoms: _240  and  _241
REMARK  100  A    between atoms: _241  and  _242
REMARK  101  A    between atoms: _242  and  _243
REMARK  102  A    between atoms: _252  and  _254
REMARK  103  A    between atoms: _254  and  _255
REMARK  104  A    between atoms: _254  and  _257
REMARK  105  A    between atoms: _257  and  _258
REMARK  106  A    between atoms: _258  and  _259
REMARK  107  A    between atoms: _262  and  _264
REMARK  108  A    between atoms: _264  and  _265
REMARK  109  A    between atoms: _264  and  _267
REMARK  110  A    between atoms: _267  and  _268
REMARK  111  A    between atoms: _271  and  _273
REMARK  112  A    between atoms: _273  and  _274
REMARK  113  A    between atoms: _273  and  _276
REMARK  114  A    between atoms: _276  and  _277
REMARK  115  A    between atoms: _280  and  _282
REMARK  116  A    between atoms: _282  and  _283
REMARK  117  A    between atoms: _282  and  _285
REMARK  118  A    between atoms: _285  and  _286
REMARK  119  A    between atoms: _286  and  _287
REMARK  120  A    between atoms: _292  and  _294
REMARK  121  A    between atoms: _294  and  _295
REMARK  122  A    between atoms: _294  and  _297
REMARK  123  A    between atoms: _297  and  _298
REMARK  124  A    between atoms: _301  and  _303
REMARK  125  A    between atoms: _303  and  _304
REMARK  126  A    between atoms: _303  and  _306
REMARK  127  A    between atoms: _306  and  _307
REMARK  128  A    between atoms: _310  and  _312
REMARK  129  A    between atoms: _312  and  _313
REMARK  130  A    between atoms: _312  and  _315
REMARK  131  A    between atoms: _315  and  _316
REMARK  132  A    between atoms: _316  and  _317
REMARK  133  A    between atoms: _322  and  _324
REMARK  134  A    between atoms: _324  and  _325
REMARK  135  A    between atoms: _327  and  _329
REMARK  136  A    between atoms: _329  and  _330
REMARK  137  A    between atoms: _329  and  _332
REMARK  138  A    between atoms: _332  and  _333
REMARK  139  A    between atoms: _336  and  _338
REMARK  140  A    between atoms: _338  and  _339
REMARK  141  A    between atoms: _338  and  _341
REMARK  142  A    between atoms: _341  and  _342
REMARK  143  A    between atoms: _345  and  _347
REMARK  144  A    between atoms: _347  and  _348
REMARK  145  A    between atoms: _347  and  _350
REMARK  146  A    between atoms: _350  and  _351
REMARK  147  A    between atoms: _356  and  _358
REMARK  148  A    between atoms: _358  and  _359
REMARK  149  A    between atoms: _358  and  _361
REMARK  150  A    between atoms: _361  and  _362
REMARK  151  A    between atoms: _365  and  _367
REMARK  152  A    between atoms: _367  and  _368
REMARK  153  A    between atoms: _367  and  _370
REMARK  154  A    between atoms: _370  and  _371
REMARK  155  A    between atoms: _373  and  _375
REMARK  156  A    between atoms: _375  and  _376
REMARK  157  A    between atoms: _375  and  _378
REMARK  158  A    between atoms: _378  and  _379
REMARK  159  A    between atoms: _379  and  _380
REMARK  160  A    between atoms: _385  and  _387
REMARK  161  A    between atoms: _387  and  _388
REMARK  162  A    between atoms: _387  and  _390
REMARK  163  A    between atoms: _390  and  _391
REMARK  164  A    between atoms: _394  and  _396
REMARK  165  A    between atoms: _396  and  _397
REMARK  166  A    between atoms: _396  and  _399
REMARK  167  A    between atoms: _402  and  _404
REMARK  168  A    between atoms: _404  and  _405
REMARK  169  A    between atoms: _404  and  _407
REMARK  170  A    between atoms: _407  and  _408
REMARK  171  A    between atoms: _408  and  _409
REMARK  172  A    between atoms: _409  and  _410
REMARK  173  A    between atoms: _419  and  _421
REMARK  174  A    between atoms: _421  and  _422
REMARK  175  A    between atoms: _421  and  _424
REMARK  176  A    between atoms: _424  and  _425
REMARK  177  A    between atoms: _428  and  _430
REMARK  178  A    between atoms: _430  and  _431
REMARK  179  A    between atoms: _430  and  _433
REMARK  180  A    between atoms: _433  and  _434
REMARK  181  A    between atoms: _444  and  _446
REMARK  182  A    between atoms: _446  and  _447
REMARK  183  A    between atoms: _446  and  _449
REMARK  184  A    between atoms: _449  and  _450
REMARK  185  A    between atoms: _454  and  _455
REMARK  186  A    between atoms: _460  and  _462
REMARK  187  A    between atoms: _462  and  _463
REMARK  188  A    between atoms: _462  and  _465
REMARK  189  A    between atoms: _465  and  _466
REMARK  190  A    between atoms: _472  and  _473
REMARK  191  A    between atoms: _478  and  _480
REMARK  192  A    between atoms: _480  and  _481
REMARK  193  A    between atoms: _483  and  _485
REMARK  194  A    between atoms: _485  and  _486
REMARK  195  A    between atoms: _485  and  _488
REMARK  196  A    between atoms: _488  and  _489
REMARK  197  A    between atoms: _492  and  _494
REMARK  198  A    between atoms: _494  and  _495
REMARK  199  A    between atoms: _494  and  _497
REMARK  200  A    between atoms: _497  and  _498
REMARK  201  A    between atoms: _498  and  _499
REMARK  202  A    between atoms: _499  and  _500
REMARK  203  A    between atoms: _500  and  _501
REMARK  204  A    between atoms: _505  and  _507
REMARK  205  A    between atoms: _507  and  _508
REMARK  206  A    between atoms: _507  and  _510
REMARK  207  A    between atoms: _513  and  _515
REMARK  208  A    between atoms: _515  and  _516
REMARK  209  A    between atoms: _519  and  _521
REMARK  210  A    between atoms: _521  and  _522
REMARK  211  A    between atoms: _521  and  _524
REMARK  212  A    between atoms: _524  and  _525
REMARK  213  A    between atoms: _528  and  _530
REMARK  214  A    between atoms: _530  and  _531
REMARK  215  A    between atoms: _530  and  _533
REMARK  216  A    between atoms: _533  and  _534
REMARK  217  A    between atoms: _540  and  _541
REMARK  218  A    between atoms: _546  and  _548
REMARK  219  A    between atoms: _548  and  _549
REMARK  220  A    between atoms: _548  and  _551
REMARK  221  A    between atoms: _551  and  _552
REMARK  222  A    between atoms: _558  and  _560
REMARK  223  A    between atoms: _560  and  _561
REMARK  224  A    between atoms: _560  and  _563
REMARK  225  A    between atoms: _563  and  _564
REMARK  226  A    between atoms: _567  and  _569
REMARK  227  A    between atoms: _569  and  _570
REMARK  228  A    between atoms: _572  and  _574
REMARK  229  A    between atoms: _574  and  _575
REMARK  230  A    between atoms: _574  and  _577
REMARK  231  A    between atoms: _577  and  _578
REMARK  232  A    between atoms: _581  and  _583
REMARK  233  A    between atoms: _583  and  _584
REMARK  234  A    between atoms: _583  and  _586
REMARK  235  A    between atoms: _586  and  _587
REMARK  236  A    between atoms: _593  and  _595
REMARK  237  A    between atoms: _595  and  _596
REMARK  238  A    between atoms: _595  and  _598
REMARK  239  A    between atoms: _598  and  _599
REMARK  240  A    between atoms: _599  and  _600
REMARK  241  A    between atoms: _605  and  _607
REMARK  242  A    between atoms: _607  and  _608
REMARK  243  A    between atoms: _607  and  _610
REMARK  244  A    between atoms: _610  and  _611
REMARK  245  A    between atoms: _614  and  _616
REMARK  246  A    between atoms: _616  and  _617
REMARK  247  A    between atoms: _616  and  _619
REMARK  248  A    between atoms: _619  and  _620
REMARK  249  A    between atoms: _622  and  _624
REMARK  250  A    between atoms: _624  and  _625
REMARK  251  A    between atoms: _624  and  _627
REMARK  252  A    between atoms: _627  and  _628
REMARK  253  A    between atoms: _634  and  _636
REMARK  254  A    between atoms: _636  and  _637
REMARK  255  A    between atoms: _636  and  _639
REMARK  256  A    between atoms: _639  and  _640
REMARK  257  A    between atoms: _645  and  _646
REMARK  258  A    between atoms: _648  and  _650
REMARK  259  A    between atoms: _650  and  _651
REMARK  260  A    between atoms: _650  and  _653
REMARK  261  A    between atoms: _653  and  _654
REMARK                            x       y       z     vdW  Elec       q    Type
REMARK                         _______ _______ _______ _____ _____    ______ ____
ROOT
ATOM      1  O   HOH     1      18.614  -4.074 -47.691  0.00  0.00    +0.000 OA
ENDROOT
TORSDOF 0
REMARK  Name = ../refined-set-2016/4idn/4idn_pocket.pdb
REMARK  261 active torsions:
REMARK  status: ('A' for Active; 'I' for Inactive)
REMARK    1  A    between atoms: _1  and  _3
REMARK    2  A    between atoms: _3  and  _4
REMARK    3  A    between atoms: _3  and  _6
REMARK    4  A    between atoms: _9  and  _11
REMARK    5  A    between atoms: _11  and  _12
REMARK    6  A    between atoms: _15  and  _17
REMARK    7  A    between atoms: _17  and  _18
REMARK    8  A    between atoms: _20  and  _22
REMARK    9  A    between atoms: _22  and  _23
REMARK   10  A    between atoms: _26  and  _28
REMARK   11  A    between atoms: _28  and  _29
REMARK   12  A    between atoms: _28  and  _31
REMARK   13  A    between atoms: _31  and  _32
REMARK   14  A    between atoms: _38  and  _40
REMARK   15  A    between atoms: _40  and  _41
REMARK   16  A    between atoms: _40  and  _43
REMARK   17  A    between atoms: _43  and  _44
REMARK   18  A    between atoms: _44  and  _45
REMARK   19  A    between atoms: _45  and  _46
REMARK   20  A    between atoms: _55  and  _57
REMARK   21  A    between atoms: _57  and  _58
REMARK   22  A    between atoms: _57  and  _60
REMARK   23  A    between atoms: _60  and  _61
REMARK   24  A    between atoms: _61  and  _62
REMARK   25  A    between atoms: _62  and  _63
REMARK   26  A    between atoms: _63  and  _64
REMARK   27  A    between atoms: _68  and  _70
REMARK   28  A    between atoms: _70  and  _71
REMARK   29  A    between atoms: _73  and  _75
REMARK   30  A    between atoms: _75  and  _76
REMARK   31  A    between atoms: _75  and  _78
REMARK   32  A    between atoms: _78  and  _79
REMARK   33  A    between atoms: _79  and  _80
REMARK   34  A    between atoms: _80  and  _81
REMARK   35  A    between atoms: _81  and  _82
REMARK   36  A    between atoms: _86  and  _88
REMARK   37  A    between atoms: _88  and  _89
REMARK   38  A    between atoms: _88  and  _91
REMARK   39  A    between atoms: _91  and  _92
REMARK   40  A    between atoms: _94  and  _96
REMARK   41  A    between atoms: _96  and  _97
REMARK   42  A    between atoms: _96  and  _99
REMARK   43  A    between atoms: _99  and  _100
REMARK   44  A    between atoms: _106  and  _108
REMARK   45  A    between atoms: _108  and  _109
REMARK   46  A    between atoms: _108  and  _111
REMARK   47  A    between atoms: _111  and  _112
REMARK   48  A    between atoms: _115  and  _117
REMARK   49  A    between atoms: _117  and  _118
REMARK   50  A    between atoms: _117  and  _120
REMARK   51  A    between atoms: _120  and  _121
REMARK   52  A    between atoms: _121  and  _122
REMARK   53  A    between atoms: _124  and  _126
REMARK   54  A    between atoms: _126  and  _127
REMARK   55  A    between atoms: _126  and  _129
REMARK   56  A    between atoms: _129  and  _130
REMARK   57  A    between atoms: _133  and  _135
REMARK   58  A    between atoms: _135  and  _136
REMARK   59  A    between atoms: _135  and  _138
REMARK   60  A    between atoms: _138  and  _139
REMARK   61  A    between atoms: _145  and  _147
REMARK   62  A    between atoms: _147  and  _148
REMARK   63  A    between atoms: _147  and  _150
REMARK   64  A    between atoms: _150  and  _151
REMARK   65  A    between atoms: _154  and  _156
REMARK   66  A    between atoms: _156  and  _157
REMARK   67  A    between atoms: _156  and  _159
REMARK   68  A    between atoms: _159  and  _160
REMARK   69  A    between atoms: _166  and  _168
REMARK   70  A    between atoms: _168  and  _169
REMARK   71  A    between atoms: _168  and  _171
REMARK   72  A    between atoms: _171  and  _172
REMARK   73  A    between atoms: _174  and  _176
REMARK   74  A    between atoms: _176  and  _177
REMARK   75  A    between atoms: _176  and  _179
REMARK   76  A    between atoms: _179  and  _180
REMARK   77  A    between atoms: _190  and  _192
REMARK   78  A    between atoms: _192  and  _193
REMARK   79  A    between atoms: _192  and  _195
REMARK   80  A    between atoms: _195  and  _196
REMARK   81  A    between atoms: _196  and  _197
REMARK   82  A    between atoms: _197  and  _198
REMARK   83  A    between atoms: _207  and  _209
REMARK   84  A    between atoms: _209  and  _210
REMARK   85  A    between atoms: _212  and  _214
REMARK   86  A    between atoms: _214  and  _215
REMARK   87  A    between atoms: _217  and  _219
REMARK   88  A    between atoms: _219  and  _220
REMARK   89  A    between atoms: _219  and  _222
REMARK   90  A    between atoms: _222  and  _223
REMARK   91  A    between atoms: _225  and  _227
REMARK   92  A    between atoms: _227  and  _228
REMARK   93  A    between atoms: _227  and  _230
REMARK   94  A    between atoms: _230  and  _231
REMARK   95  A    between atoms: _231  and  _232
REMARK   96  A    between atoms: _235  and  _237
REMARK   97  A    between atoms: _237  and  _238
REMARK   98  A    between atoms: _237  and  _240
REMARK   99  A    between atoms: _240  and  _241
REMARK  100  A    between atoms: _241  and  _242
REMARK  101  A    between atoms: _242  and  _243
REMARK  102  A    between atoms: _252  and  _254
REMARK  103  A    between atoms: _254  and  _255
REMARK  104  A    between atoms: _254  and  _257
REMARK  105  A    between atoms: _257  and  _258
REMARK  106  A    between atoms: _258  and  _259
REMARK  107  A    between atoms: _262  and  _264
REMARK  108  A    between atoms: _264  and  _265
REMARK  109  A    between atoms: _264  and  _267
REMARK  110  A    between atoms: _267  and  _268
REMARK  111  A    between atoms: _271  and  _273
REMARK  112  A    between atoms: _273  and  _274
REMARK  113  A    between atoms: _273  and  _276
REMARK  114  A    between atoms: _276  and  _277
REMARK  115  A    between atoms: _280  and  _282
REMARK  116  A    between atoms: _282  and  _283
REMARK  117  A    between atoms: _282  and  _285
REMARK  118  A    between atoms: _285  and  _286
REMARK  119  A    between atoms: _286  and  _287
REMARK  120  A    between atoms: _292  and  _294
REMARK  121  A    between atoms: _294  and  _295
REMARK  122  A    between atoms: _294  and  _297
REMARK  123  A    between atoms: _297  and  _298
REMARK  124  A    between atoms: _301  and  _303
REMARK  125  A    between atoms: _303  and  _304
REMARK  126  A    between atoms: _303  and  _306
REMARK  127  A    between atoms: _306  and  _307
REMARK  128  A    between atoms: _310  and  _312
REMARK  129  A    between atoms: _312  and  _313
REMARK  130  A    between atoms: _312  and  _315
REMARK  131  A    between atoms: _315  and  _316
REMARK  132  A    between atoms: _316  and  _317
REMARK  133  A    between atoms: _322  and  _324
REMARK  134  A    between atoms: _324  and  _325
REMARK  135  A    between atoms: _327  and  _329
REMARK  136  A    between atoms: _329  and  _330
REMARK  137  A    between atoms: _329  and  _332
REMARK  138  A    between atoms: _332  and  _333
REMARK  139  A    between atoms: _336  and  _338
REMARK  140  A    between atoms: _338  and  _339
REMARK  141  A    between atoms: _338  and  _341
REMARK  142  A    between atoms: _341  and  _342
REMARK  143  A    between atoms: _345  and  _347
REMARK  144  A    between atoms: _347  and  _348
REMARK  145  A    between atoms: _347  and  _350
REMARK  146  A    between atoms: _350  and  _351
REMARK  147  A    between atoms: _356  and  _358
REMARK  148  A    between atoms: _358  and  _359
REMARK  149  A    between atoms: _358  and  _361
REMARK  150  A    between atoms: _361  and  _362
REMARK  151  A    between atoms: _365  and  _367
REMARK  152  A    between atoms: _367  and  _368
REMARK  153  A    between atoms: _367  and  _370
REMARK  154  A    between atoms: _370  and  _371
REMARK  155  A    between atoms: _373  and  _375
REMARK  156  A    between atoms: _375  and  _376
REMARK  157  A    between atoms: _375  and  _378
REMARK  158  A    between atoms: _378  and  _379
REMARK  159  A    between atoms: _379  and  _380
REMARK  160  A    between atoms: _385  and  _387
REMARK  161  A    between atoms: _387  and  _388
REMARK  162  A    between atoms: _387  and  _390
REMARK  163  A    between atoms: _390  and  _391
REMARK  164  A    between atoms: _394  and  _396
REMARK  165  A    between atoms: _396  and  _397
REMARK  166  A    between atoms: _396  and  _399
REMARK  167  A    between atoms: _402  and  _404
REMARK  168  A    between atoms: _404  and  _405
REMARK  169  A    between atoms: _404  and  _407
REMARK  170  A    between atoms: _407  and  _408
REMARK  171  A    between atoms: _408  and  _409
REMARK  172  A    between atoms: _409  and  _410
REMARK  173  A    between atoms: _419  and  _421
REMARK  174  A    between atoms: _421  and  _422
REMARK  175  A    between atoms: _421  and  _424
REMARK  176  A    between atoms: _424  and  _425
REMARK  177  A    between atoms: _428  and  _430
REMARK  178  A    between atoms: _430  and  _431
REMARK  179  A    between atoms: _430  and  _433
REMARK  180  A    between atoms: _433  and  _434
REMARK  181  A    between atoms: _444  and  _446
REMARK  182  A    between atoms: _446  and  _447
REMARK  183  A    between atoms: _446  and  _449
REMARK  184  A    between atoms: _449  and  _450
REMARK  185  A    between atoms: _454  and  _455
REMARK  186  A    between atoms: _460  and  _462
REMARK  187  A    between atoms: _462  and  _463
REMARK  188  A    between atoms: _462  and  _465
REMARK  189  A    between atoms: _465  and  _466
REMARK  190  A    between atoms: _472  and  _473
REMARK  191  A    between atoms: _478  and  _480
REMARK  192  A    between atoms: _480  and  _481
REMARK  193  A    between atoms: _483  and  _485
REMARK  194  A    between atoms: _485  and  _486
REMARK  195  A    between atoms: _485  and  _488
REMARK  196  A    between atoms: _488  and  _489
REMARK  197  A    between atoms: _492  and  _494
REMARK  198  A    between atoms: _494  and  _495
REMARK  199  A    between atoms: _494  and  _497
REMARK  200  A    between atoms: _497  and  _498
REMARK  201  A    between atoms: _498  and  _499
REMARK  202  A    between atoms: _499  and  _500
REMARK  203  A    between atoms: _500  and  _501
REMARK  204  A    between atoms: _505  and  _507
REMARK  205  A    between atoms: _507  and  _508
REMARK  206  A    between atoms: _507  and  _510
REMARK  207  A    between atoms: _513  and  _515
REMARK  208  A    between atoms: _515  and  _516
REMARK  209  A    between atoms: _519  and  _521
REMARK  210  A    between atoms: _521  and  _522
REMARK  211  A    between atoms: _521  and  _524
REMARK  212  A    between atoms: _524  and  _525
REMARK  213  A    between atoms: _528  and  _530
REMARK  214  A    between atoms: _530  and  _531
REMARK  215  A    between atoms: _530  and  _533
REMARK  216  A    between atoms: _533  and  _534
REMARK  217  A    between atoms: _540  and  _541
REMARK  218  A    between atoms: _546  and  _548
REMARK  219  A    between atoms: _548  and  _549
REMARK  220  A    between atoms: _548  and  _551
REMARK  221  A    between atoms: _551  and  _552
REMARK  222  A    between atoms: _558  and  _560
REMARK  223  A    between atoms: _560  and  _561
REMARK  224  A    between atoms: _560  and  _563
REMARK  225  A    between atoms: _563  and  _564
REMARK  226  A    between atoms: _567  and  _569
REMARK  227  A    between atoms: _569  and  _570
REMARK  228  A    between atoms: _572  and  _574
REMARK  229  A    between atoms: _574  and  _575
REMARK  230  A    between atoms: _574  and  _577
REMARK  231  A    between atoms: _577  and  _578
REMARK  232  A    between atoms: _581  and  _583
REMARK  233  A    between atoms: _583  and  _584
REMARK  234  A    between atoms: _583  and  _586
REMARK  235  A    between atoms: _586  and  _587
REMARK  236  A    between atoms: _593  and  _595
REMARK  237  A    between atoms: _595  and  _596
REMARK  238  A    between atoms: _595  and  _598
REMARK  239  A    between atoms: _598  and  _599
REMARK  240  A    between atoms: _599  and  _600
REMARK  241  A    between atoms: _605  and  _607
REMARK  242  A    between atoms: _607  and  _608
REMARK  243  A    between atoms: _607  and  _610
REMARK  244  A    between atoms: _610  and  _611
REMARK  245  A    between atoms: _614  and  _616
REMARK  246  A    between atoms: _616  and  _617
REMARK  247  A    between atoms: _616  and  _619
REMARK  248  A    between atoms: _619  and  _620
REMARK  249  A    between atoms: _622  and  _624
REMARK  250  A    between atoms: _624  and  _625
REMARK  251  A    between atoms: _624  and  _627
REMARK  252  A    between atoms: _627  and  _628
REMARK  253  A    between atoms: _634  and  _636
REMARK  254  A    between atoms: _636  and  _637
REMARK  255  A    between atoms: _636  and  _639
REMARK  256  A    between atoms: _639  and  _640
REMARK  257  A    between atoms: _645  and  _646
REMARK  258  A    between atoms: _648  and  _650
REMARK  259  A    between atoms: _650  and  _651
REMARK  260  A    between atoms: _650  and  _653
REMARK  261  A    between atoms: _653  and  _654
REMARK                            x       y       z     vdW  Elec       q    Type
REMARK                         _______ _______ _______ _____ _____    ______ ____
ROOT
ATOM      1  O   HOH     1      32.383  -0.294 -44.840  0.00  0.00    +0.000 OA
ENDROOT
TORSDOF 0
REMARK  Name = ../refined-set-2016/4idn/4idn_pocket.pdb
REMARK  261 active torsions:
REMARK  status: ('A' for Active; 'I' for Inactive)
REMARK    1  A    between atoms: _1  and  _3
REMARK    2  A    between atoms: _3  and  _4
REMARK    3  A    between atoms: _3  and  _6
REMARK    4  A    between atoms: _9  and  _11
REMARK    5  A    between atoms: _11  and  _12
REMARK    6  A    between atoms: _15  and  _17
REMARK    7  A    between atoms: _17  and  _18
REMARK    8  A    between atoms: _20  and  _22
REMARK    9  A    between atoms: _22  and  _23
REMARK   10  A    between atoms: _26  and  _28
REMARK   11  A    between atoms: _28  and  _29
REMARK   12  A    between atoms: _28  and  _31
REMARK   13  A    between atoms: _31  and  _32
REMARK   14  A    between atoms: _38  and  _40
REMARK   15  A    between atoms: _40  and  _41
REMARK   16  A    between atoms: _40  and  _43
REMARK   17  A    between atoms: _43  and  _44
REMARK   18  A    between atoms: _44  and  _45
REMARK   19  A    between atoms: _45  and  _46
REMARK   20  A    between atoms: _55  and  _57
REMARK   21  A    between atoms: _57  and  _58
REMARK   22  A    between atoms: _57  and  _60
REMARK   23  A    between atoms: _60  and  _61
REMARK   24  A    between atoms: _61  and  _62
REMARK   25  A    between atoms: _62  and  _63
REMARK   26  A    between atoms: _63  and  _64
REMARK   27  A    between atoms: _68  and  _70
REMARK   28  A    between atoms: _70  and  _71
REMARK   29  A    between atoms: _73  and  _75
REMARK   30  A    between atoms: _75  and  _76
REMARK   31  A    between atoms: _75  and  _78
REMARK   32  A    between atoms: _78  and  _79
REMARK   33  A    between atoms: _79  and  _80
REMARK   34  A    between atoms: _80  and  _81
REMARK   35  A    between atoms: _81  and  _82
REMARK   36  A    between atoms: _86  and  _88
REMARK   37  A    between atoms: _88  and  _89
REMARK   38  A    between atoms: _88  and  _91
REMARK   39  A    between atoms: _91  and  _92
REMARK   40  A    between atoms: _94  and  _96
REMARK   41  A    between atoms: _96  and  _97
REMARK   42  A    between atoms: _96  and  _99
REMARK   43  A    between atoms: _99  and  _100
REMARK   44  A    between atoms: _106  and  _108
REMARK   45  A    between atoms: _108  and  _109
REMARK   46  A    between atoms: _108  and  _111
REMARK   47  A    between atoms: _111  and  _112
REMARK   48  A    between atoms: _115  and  _117
REMARK   49  A    between atoms: _117  and  _118
REMARK   50  A    between atoms: _117  and  _120
REMARK   51  A    between atoms: _120  and  _121
REMARK   52  A    between atoms: _121  and  _122
REMARK   53  A    between atoms: _124  and  _126
REMARK   54  A    between atoms: _126  and  _127
REMARK   55  A    between atoms: _126  and  _129
REMARK   56  A    between atoms: _129  and  _130
REMARK   57  A    between atoms: _133  and  _135
REMARK   58  A    between atoms: _135  and  _136
REMARK   59  A    between atoms: _135  and  _138
REMARK   60  A    between atoms: _138  and  _139
REMARK   61  A    between atoms: _145  and  _147
REMARK   62  A    between atoms: _147  and  _148
REMARK   63  A    between atoms: _147  and  _150
REMARK   64  A    between atoms: _150  and  _151
REMARK   65  A    between atoms: _154  and  _156
REMARK   66  A    between atoms: _156  and  _157
REMARK   67  A    between atoms: _156  and  _159
REMARK   68  A    between atoms: _159  and  _160
REMARK   69  A    between atoms: _166  and  _168
REMARK   70  A    between atoms: _168  and  _169
REMARK   71  A    between atoms: _168  and  _171
REMARK   72  A    between atoms: _171  and  _172
REMARK   73  A    between atoms: _174  and  _176
REMARK   74  A    between atoms: _176  and  _177
REMARK   75  A    between atoms: _176  and  _179
REMARK   76  A    between atoms: _179  and  _180
REMARK   77  A    between atoms: _190  and  _192
REMARK   78  A    between atoms: _192  and  _193
REMARK   79  A    between atoms: _192  and  _195
REMARK   80  A    between atoms: _195  and  _196
REMARK   81  A    between atoms: _196  and  _197
REMARK   82  A    between atoms: _197  and  _198
REMARK   83  A    between atoms: _207  and  _209
REMARK   84  A    between atoms: _209  and  _210
REMARK   85  A    between atoms: _212  and  _214
REMARK   86  A    between atoms: _214  and  _215
REMARK   87  A    between atoms: _217  and  _219
REMARK   88  A    between atoms: _219  and  _220
REMARK   89  A    between atoms: _219  and  _222
REMARK   90  A    between atoms: _222  and  _223
REMARK   91  A    between atoms: _225  and  _227
REMARK   92  A    between atoms: _227  and  _228
REMARK   93  A    between atoms: _227  and  _230
REMARK   94  A    between atoms: _230  and  _231
REMARK   95  A    between atoms: _231  and  _232
REMARK   96  A    between atoms: _235  and  _237
REMARK   97  A    between atoms: _237  and  _238
REMARK   98  A    between atoms: _237  and  _240
REMARK   99  A    between atoms: _240  and  _241
REMARK  100  A    between atoms: _241  and  _242
REMARK  101  A    between atoms: _242  and  _243
REMARK  102  A    between atoms: _252  and  _254
REMARK  103  A    between atoms: _254  and  _255
REMARK  104  A    between atoms: _254  and  _257
REMARK  105  A    between atoms: _257  and  _258
REMARK  106  A    between atoms: _258  and  _259
REMARK  107  A    between atoms: _262  and  _264
REMARK  108  A    between atoms: _264  and  _265
REMARK  109  A    between atoms: _264  and  _267
REMARK  110  A    between atoms: _267  and  _268
REMARK  111  A    between atoms: _271  and  _273
REMARK  112  A    between atoms: _273  and  _274
REMARK  113  A    between atoms: _273  and  _276
REMARK  114  A    between atoms: _276  and  _277
REMARK  115  A    between atoms: _280  and  _282
REMARK  116  A    between atoms: _282  and  _283
REMARK  117  A    between atoms: _282  and  _285
REMARK  118  A    between atoms: _285  and  _286
REMARK  119  A    between atoms: _286  and  _287
REMARK  120  A    between atoms: _292  and  _294
REMARK  121  A    between atoms: _294  and  _295
REMARK  122  A    between atoms: _294  and  _297
REMARK  123  A    between atoms: _297  and  _298
REMARK  124  A    between atoms: _301  and  _303
REMARK  125  A    between atoms: _303  and  _304
REMARK  126  A    between atoms: _303  and  _306
REMARK  127  A    between atoms: _306  and  _307
REMARK  128  A    between atoms: _310  and  _312
REMARK  129  A    between atoms: _312  and  _313
REMARK  130  A    between atoms: _312  and  _315
REMARK  131  A    between atoms: _315  and  _316
REMARK  132  A    between atoms: _316  and  _317
REMARK  133  A    between atoms: _322  and  _324
REMARK  134  A    between atoms: _324  and  _325
REMARK  135  A    between atoms: _327  and  _329
REMARK  136  A    between atoms: _329  and  _330
REMARK  137  A    between atoms: _329  and  _332
REMARK  138  A    between atoms: _332  and  _333
REMARK  139  A    between atoms: _336  and  _338
REMARK  140  A    between atoms: _338  and  _339
REMARK  141  A    between atoms: _338  and  _341
REMARK  142  A    between atoms: _341  and  _342
REMARK  143  A    between atoms: _345  and  _347
REMARK  144  A    between atoms: _347  and  _348
REMARK  145  A    between atoms: _347  and  _350
REMARK  146  A    between atoms: _350  and  _351
REMARK  147  A    between atoms: _356  and  _358
REMARK  148  A    between atoms: _358  and  _359
REMARK  149  A    between atoms: _358  and  _361
REMARK  150  A    between atoms: _361  and  _362
REMARK  151  A    between atoms: _365  and  _367
REMARK  152  A    between atoms: _367  and  _368
REMARK  153  A    between atoms: _367  and  _370
REMARK  154  A    between atoms: _370  and  _371
REMARK  155  A    between atoms: _373  and  _375
REMARK  156  A    between atoms: _375  and  _376
REMARK  157  A    between atoms: _375  and  _378
REMARK  158  A    between atoms: _378  and  _379
REMARK  159  A    between atoms: _379  and  _380
REMARK  160  A    between atoms: _385  and  _387
REMARK  161  A    between atoms: _387  and  _388
REMARK  162  A    between atoms: _387  and  _390
REMARK  163  A    between atoms: _390  and  _391
REMARK  164  A    between atoms: _394  and  _396
REMARK  165  A    between atoms: _396  and  _397
REMARK  166  A    between atoms: _396  and  _399
REMARK  167  A    between atoms: _402  and  _404
REMARK  168  A    between atoms: _404  and  _405
REMARK  169  A    between atoms: _404  and  _407
REMARK  170  A    between atoms: _407  and  _408
REMARK  171  A    between atoms: _408  and  _409
REMARK  172  A    between atoms: _409  and  _410
REMARK  173  A    between atoms: _419  and  _421
REMARK  174  A    between atoms: _421  and  _422
REMARK  175  A    between atoms: _421  and  _424
REMARK  176  A    between atoms: _424  and  _425
REMARK  177  A    between atoms: _428  and  _430
REMARK  178  A    between atoms: _430  and  _431
REMARK  179  A    between atoms: _430  and  _433
REMARK  180  A    between atoms: _433  and  _434
REMARK  181  A    between atoms: _444  and  _446
REMARK  182  A    between atoms: _446  and  _447
REMARK  183  A    between atoms: _446  and  _449
REMARK  184  A    between atoms: _449  and  _450
REMARK  185  A    between atoms: _454  and  _455
REMARK  186  A    between atoms: _460  and  _462
REMARK  187  A    between atoms: _462  and  _463
REMARK  188  A    between atoms: _462  and  _465
REMARK  189  A    between atoms: _465  and  _466
REMARK  190  A    between atoms: _472  and  _473
REMARK  191  A    between atoms: _478  and  _480
REMARK  192  A    between atoms: _480  and  _481
REMARK  193  A    between atoms: _483  and  _485
REMARK  194  A    between atoms: _485  and  _486
REMARK  195  A    between atoms: _485  and  _488
REMARK  196  A    between atoms: _488  and  _489
REMARK  197  A    between atoms: _492  and  _494
REMARK  198  A    between atoms: _494  and  _495
REMARK  199  A    between atoms: _494  and  _497
REMARK  200  A    between atoms: _497  and  _498
REMARK  201  A    between atoms: _498  and  _499
REMARK  202  A    between atoms: _499  and  _500
REMARK  203  A    between atoms: _500  and  _501
REMARK  204  A    between atoms: _505  and  _507
REMARK  205  A    between atoms: _507  and  _508
REMARK  206  A    between atoms: _507  and  _510
REMARK  207  A    between atoms: _513  and  _515
REMARK  208  A    between atoms: _515  and  _516
REMARK  209  A    between atoms: _519  and  _521
REMARK  210  A    between atoms: _521  and  _522
REMARK  211  A    between atoms: _521  and  _524
REMARK  212  A    between atoms: _524  and  _525
REMARK  213  A    between atoms: _528  and  _530
REMARK  214  A    between atoms: _530  and  _531
REMARK  215  A    between atoms: _530  and  _533
REMARK  216  A    between atoms: _533  and  _534
REMARK  217  A    between atoms: _540  and  _541
REMARK  218  A    between atoms: _546  and  _548
REMARK  219  A    between atoms: _548  and  _549
REMARK  220  A    between atoms: _548  and  _551
REMARK  221  A    between atoms: _551  and  _552
REMARK  222  A    between atoms: _558  and  _560
REMARK  223  A    between atoms: _560  and  _561
REMARK  224  A    between atoms: _560  and  _563
REMARK  225  A    between atoms: _563  and  _564
REMARK  226  A    between atoms: _567  and  _569
REMARK  227  A    between atoms: _569  and  _570
REMARK  228  A    between atoms: _572  and  _574
REMARK  229  A    between atoms: _574  and  _575
REMARK  230  A    between atoms: _574  and  _577
REMARK  231  A    between atoms: _577  and  _578
REMARK  232  A    between atoms: _581  and  _583
REMARK  233  A    between atoms: _583  and  _584
REMARK  234  A    between atoms: _583  and  _586
REMARK  235  A    between atoms: _586  and  _587
REMARK  236  A    between atoms: _593  and  _595
REMARK  237  A    between atoms: _595  and  _596
REMARK  238  A    between atoms: _595  and  _598
REMARK  239  A    between atoms: _598  and  _599
REMARK  240  A    between atoms: _599  and  _600
REMARK  241  A    between atoms: _605  and  _607
REMARK  242  A    between atoms: _607  and  _608
REMARK  243  A    between atoms: _607  and  _610
REMARK  244  A    between atoms: _610  and  _611
REMARK  245  A    between atoms: _614  and  _616
REMARK  246  A    between atoms: _616  and  _617
REMARK  247  A    between atoms: _616  and  _619
REMARK  248  A    between atoms: _619  and  _620
REMARK  249  A    between atoms: _622  and  _624
REMARK  250  A    between atoms: _624  and  _625
REMARK  251  A    between atoms: _624  and  _627
REMARK  252  A    between atoms: _627  and  _628
REMARK  253  A    between atoms: _634  and  _636
REMARK  254  A    between atoms: _636  and  _637
REMARK  255  A    between atoms: _636  and  _639
REMARK  256  A    between atoms: _639  and  _640
REMARK  257  A    between atoms: _645  and  _646
REMARK  258  A    between atoms: _648  and  _650
REMARK  259  A    between atoms: _650  and  _651
REMARK  260  A    between atoms: _650  and  _653
REMARK  261  A    between atoms: _653  and  _654
REMARK                            x       y       z     vdW  Elec       q    Type
REMARK                         _______ _______ _______ _____ _____    ______ ____
ROOT
ATOM      1  O   HOH     1      16.503   1.372 -43.379  0.00  0.00    +0.000 OA
ENDROOT
TORSDOF 0
REMARK  Name = ../refined-set-2016/4idn/4idn_pocket.pdb
REMARK  261 active torsions:
REMARK  status: ('A' for Active; 'I' for Inactive)
REMARK    1  A    between atoms: _1  and  _3
REMARK    2  A    between atoms: _3  and  _4
REMARK    3  A    between atoms: _3  and  _6
REMARK    4  A    between atoms: _9  and  _11
REMARK    5  A    between atoms: _11  and  _12
REMARK    6  A    between atoms: _15  and  _17
REMARK    7  A    between atoms: _17  and  _18
REMARK    8  A    between atoms: _20  and  _22
REMARK    9  A    between atoms: _22  and  _23
REMARK   10  A    between atoms: _26  and  _28
REMARK   11  A    between atoms: _28  and  _29
REMARK   12  A    between atoms: _28  and  _31
REMARK   13  A    between atoms: _31  and  _32
REMARK   14  A    between atoms: _38  and  _40
REMARK   15  A    between atoms: _40  and  _41
REMARK   16  A    between atoms: _40  and  _43
REMARK   17  A    between atoms: _43  and  _44
REMARK   18  A    between atoms: _44  and  _45
REMARK   19  A    between atoms: _45  and  _46
REMARK   20  A    between atoms: _55  and  _57
REMARK   21  A    between atoms: _57  and  _58
REMARK   22  A    between atoms: _57  and  _60
REMARK   23  A    between atoms: _60  and  _61
REMARK   24  A    between atoms: _61  and  _62
REMARK   25  A    between atoms: _62  and  _63
REMARK   26  A    between atoms: _63  and  _64
REMARK   27  A    between atoms: _68  and  _70
REMARK   28  A    between atoms: _70  and  _71
REMARK   29  A    between atoms: _73  and  _75
REMARK   30  A    between atoms: _75  and  _76
REMARK   31  A    between atoms: _75  and  _78
REMARK   32  A    between atoms: _78  and  _79
REMARK   33  A    between atoms: _79  and  _80
REMARK   34  A    between atoms: _80  and  _81
REMARK   35  A    between atoms: _81  and  _82
REMARK   36  A    between atoms: _86  and  _88
REMARK   37  A    between atoms: _88  and  _89
REMARK   38  A    between atoms: _88  and  _91
REMARK   39  A    between atoms: _91  and  _92
REMARK   40  A    between atoms: _94  and  _96
REMARK   41  A    between atoms: _96  and  _97
REMARK   42  A    between atoms: _96  and  _99
REMARK   43  A    between atoms: _99  and  _100
REMARK   44  A    between atoms: _106  and  _108
REMARK   45  A    between atoms: _108  and  _109
REMARK   46  A    between atoms: _108  and  _111
REMARK   47  A    between atoms: _111  and  _112
REMARK   48  A    between atoms: _115  and  _117
REMARK   49  A    between atoms: _117  and  _118
REMARK   50  A    between atoms: _117  and  _120
REMARK   51  A    between atoms: _120  and  _121
REMARK   52  A    between atoms: _121  and  _122
REMARK   53  A    between atoms: _124  and  _126
REMARK   54  A    between atoms: _126  and  _127
REMARK   55  A    between atoms: _126  and  _129
REMARK   56  A    between atoms: _129  and  _130
REMARK   57  A    between atoms: _133  and  _135
REMARK   58  A    between atoms: _135  and  _136
REMARK   59  A    between atoms: _135  and  _138
REMARK   60  A    between atoms: _138  and  _139
REMARK   61  A    between atoms: _145  and  _147
REMARK   62  A    between atoms: _147  and  _148
REMARK   63  A    between atoms: _147  and  _150
REMARK   64  A    between atoms: _150  and  _151
REMARK   65  A    between atoms: _154  and  _156
REMARK   66  A    between atoms: _156  and  _157
REMARK   67  A    between atoms: _156  and  _159
REMARK   68  A    between atoms: _159  and  _160
REMARK   69  A    between atoms: _166  and  _168
REMARK   70  A    between atoms: _168  and  _169
REMARK   71  A    between atoms: _168  and  _171
REMARK   72  A    between atoms: _171  and  _172
REMARK   73  A    between atoms: _174  and  _176
REMARK   74  A    between atoms: _176  and  _177
REMARK   75  A    between atoms: _176  and  _179
REMARK   76  A    between atoms: _179  and  _180
REMARK   77  A    between atoms: _190  and  _192
REMARK   78  A    between atoms: _192  and  _193
REMARK   79  A    between atoms: _192  and  _195
REMARK   80  A    between atoms: _195  and  _196
REMARK   81  A    between atoms: _196  and  _197
REMARK   82  A    between atoms: _197  and  _198
REMARK   83  A    between atoms: _207  and  _209
REMARK   84  A    between atoms: _209  and  _210
REMARK   85  A    between atoms: _212  and  _214
REMARK   86  A    between atoms: _214  and  _215
REMARK   87  A    between atoms: _217  and  _219
REMARK   88  A    between atoms: _219  and  _220
REMARK   89  A    between atoms: _219  and  _222
REMARK   90  A    between atoms: _222  and  _223
REMARK   91  A    between atoms: _225  and  _227
REMARK   92  A    between atoms: _227  and  _228
REMARK   93  A    between atoms: _227  and  _230
REMARK   94  A    between atoms: _230  and  _231
REMARK   95  A    between atoms: _231  and  _232
REMARK   96  A    between atoms: _235  and  _237
REMARK   97  A    between atoms: _237  and  _238
REMARK   98  A    between atoms: _237  and  _240
REMARK   99  A    between atoms: _240  and  _241
REMARK  100  A    between atoms: _241  and  _242
REMARK  101  A    between atoms: _242  and  _243
REMARK  102  A    between atoms: _252  and  _254
REMARK  103  A    between atoms: _254  and  _255
REMARK  104  A    between atoms: _254  and  _257
REMARK  105  A    between atoms: _257  and  _258
REMARK  106  A    between atoms: _258  and  _259
REMARK  107  A    between atoms: _262  and  _264
REMARK  108  A    between atoms: _264  and  _265
REMARK  109  A    between atoms: _264  and  _267
REMARK  110  A    between atoms: _267  and  _268
REMARK  111  A    between atoms: _271  and  _273
REMARK  112  A    between atoms: _273  and  _274
REMARK  113  A    between atoms: _273  and  _276
REMARK  114  A    between atoms: _276  and  _277
REMARK  115  A    between atoms: _280  and  _282
REMARK  116  A    between atoms: _282  and  _283
REMARK  117  A    between atoms: _282  and  _285
REMARK  118  A    between atoms: _285  and  _286
REMARK  119  A    between atoms: _286  and  _287
REMARK  120  A    between atoms: _292  and  _294
REMARK  121  A    between atoms: _294  and  _295
REMARK  122  A    between atoms: _294  and  _297
REMARK  123  A    between atoms: _297  and  _298
REMARK  124  A    between atoms: _301  and  _303
REMARK  125  A    between atoms: _303  and  _304
REMARK  126  A    between atoms: _303  and  _306
REMARK  127  A    between atoms: _306  and  _307
REMARK  128  A    between atoms: _310  and  _312
REMARK  129  A    between atoms: _312  and  _313
REMARK  130  A    between atoms: _312  and  _315
REMARK  131  A    between atoms: _315  and  _316
REMARK  132  A    between atoms: _316  and  _317
REMARK  133  A    between atoms: _322  and  _324
REMARK  134  A    between atoms: _324  and  _325
REMARK  135  A    between atoms: _327  and  _329
REMARK  136  A    between atoms: _329  and  _330
REMARK  137  A    between atoms: _329  and  _332
REMARK  138  A    between atoms: _332  and  _333
REMARK  139  A    between atoms: _336  and  _338
REMARK  140  A    between atoms: _338  and  _339
REMARK  141  A    between atoms: _338  and  _341
REMARK  142  A    between atoms: _341  and  _342
REMARK  143  A    between atoms: _345  and  _347
REMARK  144  A    between atoms: _347  and  _348
REMARK  145  A    between atoms: _347  and  _350
REMARK  146  A    between atoms: _350  and  _351
REMARK  147  A    between atoms: _356  and  _358
REMARK  148  A    between atoms: _358  and  _359
REMARK  149  A    between atoms: _358  and  _361
REMARK  150  A    between atoms: _361  and  _362
REMARK  151  A    between atoms: _365  and  _367
REMARK  152  A    between atoms: _367  and  _368
REMARK  153  A    between atoms: _367  and  _370
REMARK  154  A    between atoms: _370  and  _371
REMARK  155  A    between atoms: _373  and  _375
REMARK  156  A    between atoms: _375  and  _376
REMARK  157  A    between atoms: _375  and  _378
REMARK  158  A    between atoms: _378  and  _379
REMARK  159  A    between atoms: _379  and  _380
REMARK  160  A    between atoms: _385  and  _387
REMARK  161  A    between atoms: _387  and  _388
REMARK  162  A    between atoms: _387  and  _390
REMARK  163  A    between atoms: _390  and  _391
REMARK  164  A    between atoms: _394  and  _396
REMARK  165  A    between atoms: _396  and  _397
REMARK  166  A    between atoms: _396  and  _399
REMARK  167  A    between atoms: _402  and  _404
REMARK  168  A    between atoms: _404  and  _405
REMARK  169  A    between atoms: _404  and  _407
REMARK  170  A    between atoms: _407  and  _408
REMARK  171  A    between atoms: _408  and  _409
REMARK  172  A    between atoms: _409  and  _410
REMARK  173  A    between atoms: _419  and  _421
REMARK  174  A    between atoms: _421  and  _422
REMARK  175  A    between atoms: _421  and  _424
REMARK  176  A    between atoms: _424  and  _425
REMARK  177  A    between atoms: _428  and  _430
REMARK  178  A    between atoms: _430  and  _431
REMARK  179  A    between atoms: _430  and  _433
REMARK  180  A    between atoms: _433  and  _434
REMARK  181  A    between atoms: _444  and  _446
REMARK  182  A    between atoms: _446  and  _447
REMARK  183  A    between atoms: _446  and  _449
REMARK  184  A    between atoms: _449  and  _450
REMARK  185  A    between atoms: _454  and  _455
REMARK  186  A    between atoms: _460  and  _462
REMARK  187  A    between atoms: _462  and  _463
REMARK  188  A    between atoms: _462  and  _465
REMARK  189  A    between atoms: _465  and  _466
REMARK  190  A    between atoms: _472  and  _473
REMARK  191  A    between atoms: _478  and  _480
REMARK  192  A    between atoms: _480  and  _481
REMARK  193  A    between atoms: _483  and  _485
REMARK  194  A    between atoms: _485  and  _486
REMARK  195  A    between atoms: _485  and  _488
REMARK  196  A    between atoms: _488  and  _489
REMARK  197  A    between atoms: _492  and  _494
REMARK  198  A    between atoms: _494  and  _495
REMARK  199  A    between atoms: _494  and  _497
REMARK  200  A    between atoms: _497  and  _498
REMARK  201  A    between atoms: _498  and  _499
REMARK  202  A    between atoms: _499  and  _500
REMARK  203  A    between atoms: _500  and  _501
REMARK  204  A    between atoms: _505  and  _507
REMARK  205  A    between atoms: _507  and  _508
REMARK  206  A    between atoms: _507  and  _510
REMARK  207  A    between atoms: _513  and  _515
REMARK  208  A    between atoms: _515  and  _516
REMARK  209  A    between atoms: _519  and  _521
REMARK  210  A    between atoms: _521  and  _522
REMARK  211  A    between atoms: _521  and  _524
REMARK  212  A    between atoms: _524  and  _525
REMARK  213  A    between atoms: _528  and  _530
REMARK  214  A    between atoms: _530  and  _531
REMARK  215  A    between atoms: _530  and  _533
REMARK  216  A    between atoms: _533  and  _534
REMARK  217  A    between atoms: _540  and  _541
REMARK  218  A    between atoms: _546  and  _548
REMARK  219  A    between atoms: _548  and  _549
REMARK  220  A    between atoms: _548  and  _551
REMARK  221  A    between atoms: _551  and  _552
REMARK  222  A    between atoms: _558  and  _560
REMARK  223  A    between atoms: _560  and  _561
REMARK  224  A    between atoms: _560  and  _563
REMARK  225  A    between atoms: _563  and  _564
REMARK  226  A    between atoms: _567  and  _569
REMARK  227  A    between atoms: _569  and  _570
REMARK  228  A    between atoms: _572  and  _574
REMARK  229  A    between atoms: _574  and  _575
REMARK  230  A    between atoms: _574  and  _577
REMARK  231  A    between atoms: _577  and  _578
REMARK  232  A    between atoms: _581  and  _583
REMARK  233  A    between atoms: _583  and  _584
REMARK  234  A    between atoms: _583  and  _586
REMARK  235  A    between atoms: _586  and  _587
REMARK  236  A    between atoms: _593  and  _595
REMARK  237  A    between atoms: _595  and  _596
REMARK  238  A    between atoms: _595  and  _598
REMARK  239  A    between atoms: _598  and  _599
REMARK  240  A    between atoms: _599  and  _600
REMARK  241  A    between atoms: _605  and  _607
REMARK  242  A    between atoms: _607  and  _608
REMARK  243  A    between atoms: _607  and  _610
REMARK  244  A    between atoms: _610  and  _611
REMARK  245  A    between atoms: _614  and  _616
REMARK  246  A    between atoms: _616  and  _617
REMARK  247  A    between atoms: _616  and  _619
REMARK  248  A    between atoms: _619  and  _620
REMARK  249  A    between atoms: _622  and  _624
REMARK  250  A    between atoms: _624  and  _625
REMARK  251  A    between atoms: _624  and  _627
REMARK  252  A    between atoms: _627  and  _628
REMARK  253  A    between atoms: _634  and  _636
REMARK  254  A    between atoms: _636  and  _637
REMARK  255  A    between atoms: _636  and  _639
REMARK  256  A    between atoms: _639  and  _640
REMARK  257  A    between atoms: _645  and  _646
REMARK  258  A    between atoms: _648  and  _650
REMARK  259  A    between atoms: _650  and  _651
REMARK  260  A    between atoms: _650  and  _653
REMARK  261  A    between atoms: _653  and  _654
REMARK                            x       y       z     vdW  Elec       q    Type
REMARK                         _______ _______ _______ _____ _____    ______ ____
ROOT
ATOM      1  O   HOH     1      27.999   5.291 -49.200  0.00  0.00    +0.000 OA
ENDROOT
TORSDOF 0
REMARK  Name = ../refined-set-2016/4idn/4idn_pocket.pdb
REMARK  261 active torsions:
REMARK  status: ('A' for Active; 'I' for Inactive)
REMARK    1  A    between atoms: _1  and  _3
REMARK    2  A    between atoms: _3  and  _4
REMARK    3  A    between atoms: _3  and  _6
REMARK    4  A    between atoms: _9  and  _11
REMARK    5  A    between atoms: _11  and  _12
REMARK    6  A    between atoms: _15  and  _17
REMARK    7  A    between atoms: _17  and  _18
REMARK    8  A    between atoms: _20  and  _22
REMARK    9  A    between atoms: _22  and  _23
REMARK   10  A    between atoms: _26  and  _28
REMARK   11  A    between atoms: _28  and  _29
REMARK   12  A    between atoms: _28  and  _31
REMARK   13  A    between atoms: _31  and  _32
REMARK   14  A    between atoms: _38  and  _40
REMARK   15  A    between atoms: _40  and  _41
REMARK   16  A    between atoms: _40  and  _43
REMARK   17  A    between atoms: _43  and  _44
REMARK   18  A    between atoms: _44  and  _45
REMARK   19  A    between atoms: _45  and  _46
REMARK   20  A    between atoms: _55  and  _57
REMARK   21  A    between atoms: _57  and  _58
REMARK   22  A    between atoms: _57  and  _60
REMARK   23  A    between atoms: _60  and  _61
REMARK   24  A    between atoms: _61  and  _62
REMARK   25  A    between atoms: _62  and  _63
REMARK   26  A    between atoms: _63  and  _64
REMARK   27  A    between atoms: _68  and  _70
REMARK   28  A    between atoms: _70  and  _71
REMARK   29  A    between atoms: _73  and  _75
REMARK   30  A    between atoms: _75  and  _76
REMARK   31  A    between atoms: _75  and  _78
REMARK   32  A    between atoms: _78  and  _79
REMARK   33  A    between atoms: _79  and  _80
REMARK   34  A    between atoms: _80  and  _81
REMARK   35  A    between atoms: _81  and  _82
REMARK   36  A    between atoms: _86  and  _88
REMARK   37  A    between atoms: _88  and  _89
REMARK   38  A    between atoms: _88  and  _91
REMARK   39  A    between atoms: _91  and  _92
REMARK   40  A    between atoms: _94  and  _96
REMARK   41  A    between atoms: _96  and  _97
REMARK   42  A    between atoms: _96  and  _99
REMARK   43  A    between atoms: _99  and  _100
REMARK   44  A    between atoms: _106  and  _108
REMARK   45  A    between atoms: _108  and  _109
REMARK   46  A    between atoms: _108  and  _111
REMARK   47  A    between atoms: _111  and  _112
REMARK   48  A    between atoms: _115  and  _117
REMARK   49  A    between atoms: _117  and  _118
REMARK   50  A    between atoms: _117  and  _120
REMARK   51  A    between atoms: _120  and  _121
REMARK   52  A    between atoms: _121  and  _122
REMARK   53  A    between atoms: _124  and  _126
REMARK   54  A    between atoms: _126  and  _127
REMARK   55  A    between atoms: _126  and  _129
REMARK   56  A    between atoms: _129  and  _130
REMARK   57  A    between atoms: _133  and  _135
REMARK   58  A    between atoms: _135  and  _136
REMARK   59  A    between atoms: _135  and  _138
REMARK   60  A    between atoms: _138  and  _139
REMARK   61  A    between atoms: _145  and  _147
REMARK   62  A    between atoms: _147  and  _148
REMARK   63  A    between atoms: _147  and  _150
REMARK   64  A    between atoms: _150  and  _151
REMARK   65  A    between atoms: _154  and  _156
REMARK   66  A    between atoms: _156  and  _157
REMARK   67  A    between atoms: _156  and  _159
REMARK   68  A    between atoms: _159  and  _160
REMARK   69  A    between atoms: _166  and  _168
REMARK   70  A    between atoms: _168  and  _169
REMARK   71  A    between atoms: _168  and  _171
REMARK   72  A    between atoms: _171  and  _172
REMARK   73  A    between atoms: _174  and  _176
REMARK   74  A    between atoms: _176  and  _177
REMARK   75  A    between atoms: _176  and  _179
REMARK   76  A    between atoms: _179  and  _180
REMARK   77  A    between atoms: _190  and  _192
REMARK   78  A    between atoms: _192  and  _193
REMARK   79  A    between atoms: _192  and  _195
REMARK   80  A    between atoms: _195  and  _196
REMARK   81  A    between atoms: _196  and  _197
REMARK   82  A    between atoms: _197  and  _198
REMARK   83  A    between atoms: _207  and  _209
REMARK   84  A    between atoms: _209  and  _210
REMARK   85  A    between atoms: _212  and  _214
REMARK   86  A    between atoms: _214  and  _215
REMARK   87  A    between atoms: _217  and  _219
REMARK   88  A    between atoms: _219  and  _220
REMARK   89  A    between atoms: _219  and  _222
REMARK   90  A    between atoms: _222  and  _223
REMARK   91  A    between atoms: _225  and  _227
REMARK   92  A    between atoms: _227  and  _228
REMARK   93  A    between atoms: _227  and  _230
REMARK   94  A    between atoms: _230  and  _231
REMARK   95  A    between atoms: _231  and  _232
REMARK   96  A    between atoms: _235  and  _237
REMARK   97  A    between atoms: _237  and  _238
REMARK   98  A    between atoms: _237  and  _240
REMARK   99  A    between atoms: _240  and  _241
REMARK  100  A    between atoms: _241  and  _242
REMARK  101  A    between atoms: _242  and  _243
REMARK  102  A    between atoms: _252  and  _254
REMARK  103  A    between atoms: _254  and  _255
REMARK  104  A    between atoms: _254  and  _257
REMARK  105  A    between atoms: _257  and  _258
REMARK  106  A    between atoms: _258  and  _259
REMARK  107  A    between atoms: _262  and  _264
REMARK  108  A    between atoms: _264  and  _265
REMARK  109  A    between atoms: _264  and  _267
REMARK  110  A    between atoms: _267  and  _268
REMARK  111  A    between atoms: _271  and  _273
REMARK  112  A    between atoms: _273  and  _274
REMARK  113  A    between atoms: _273  and  _276
REMARK  114  A    between atoms: _276  and  _277
REMARK  115  A    between atoms: _280  and  _282
REMARK  116  A    between atoms: _282  and  _283
REMARK  117  A    between atoms: _282  and  _285
REMARK  118  A    between atoms: _285  and  _286
REMARK  119  A    between atoms: _286  and  _287
REMARK  120  A    between atoms: _292  and  _294
REMARK  121  A    between atoms: _294  and  _295
REMARK  122  A    between atoms: _294  and  _297
REMARK  123  A    between atoms: _297  and  _298
REMARK  124  A    between atoms: _301  and  _303
REMARK  125  A    between atoms: _303  and  _304
REMARK  126  A    between atoms: _303  and  _306
REMARK  127  A    between atoms: _306  and  _307
REMARK  128  A    between atoms: _310  and  _312
REMARK  129  A    between atoms: _312  and  _313
REMARK  130  A    between atoms: _312  and  _315
REMARK  131  A    between atoms: _315  and  _316
REMARK  132  A    between atoms: _316  and  _317
REMARK  133  A    between atoms: _322  and  _324
REMARK  134  A    between atoms: _324  and  _325
REMARK  135  A    between atoms: _327  and  _329
REMARK  136  A    between atoms: _329  and  _330
REMARK  137  A    between atoms: _329  and  _332
REMARK  138  A    between atoms: _332  and  _333
REMARK  139  A    between atoms: _336  and  _338
REMARK  140  A    between atoms: _338  and  _339
REMARK  141  A    between atoms: _338  and  _341
REMARK  142  A    between atoms: _341  and  _342
REMARK  143  A    between atoms: _345  and  _347
REMARK  144  A    between atoms: _347  and  _348
REMARK  145  A    between atoms: _347  and  _350
REMARK  146  A    between atoms: _350  and  _351
REMARK  147  A    between atoms: _356  and  _358
REMARK  148  A    between atoms: _358  and  _359
REMARK  149  A    between atoms: _358  and  _361
REMARK  150  A    between atoms: _361  and  _362
REMARK  151  A    between atoms: _365  and  _367
REMARK  152  A    between atoms: _367  and  _368
REMARK  153  A    between atoms: _367  and  _370
REMARK  154  A    between atoms: _370  and  _371
REMARK  155  A    between atoms: _373  and  _375
REMARK  156  A    between atoms: _375  and  _376
REMARK  157  A    between atoms: _375  and  _378
REMARK  158  A    between atoms: _378  and  _379
REMARK  159  A    between atoms: _379  and  _380
REMARK  160  A    between atoms: _385  and  _387
REMARK  161  A    between atoms: _387  and  _388
REMARK  162  A    between atoms: _387  and  _390
REMARK  163  A    between atoms: _390  and  _391
REMARK  164  A    between atoms: _394  and  _396
REMARK  165  A    between atoms: _396  and  _397
REMARK  166  A    between atoms: _396  and  _399
REMARK  167  A    between atoms: _402  and  _404
REMARK  168  A    between atoms: _404  and  _405
REMARK  169  A    between atoms: _404  and  _407
REMARK  170  A    between atoms: _407  and  _408
REMARK  171  A    between atoms: _408  and  _409
REMARK  172  A    between atoms: _409  and  _410
REMARK  173  A    between atoms: _419  and  _421
REMARK  174  A    between atoms: _421  and  _422
REMARK  175  A    between atoms: _421  and  _424
REMARK  176  A    between atoms: _424  and  _425
REMARK  177  A    between atoms: _428  and  _430
REMARK  178  A    between atoms: _430  and  _431
REMARK  179  A    between atoms: _430  and  _433
REMARK  180  A    between atoms: _433  and  _434
REMARK  181  A    between atoms: _444  and  _446
REMARK  182  A    between atoms: _446  and  _447
REMARK  183  A    between atoms: _446  and  _449
REMARK  184  A    between atoms: _449  and  _450
REMARK  185  A    between atoms: _454  and  _455
REMARK  186  A    between atoms: _460  and  _462
REMARK  187  A    between atoms: _462  and  _463
REMARK  188  A    between atoms: _462  and  _465
REMARK  189  A    between atoms: _465  and  _466
REMARK  190  A    between atoms: _472  and  _473
REMARK  191  A    between atoms: _478  and  _480
REMARK  192  A    between atoms: _480  and  _481
REMARK  193  A    between atoms: _483  and  _485
REMARK  194  A    between atoms: _485  and  _486
REMARK  195  A    between atoms: _485  and  _488
REMARK  196  A    between atoms: _488  and  _489
REMARK  197  A    between atoms: _492  and  _494
REMARK  198  A    between atoms: _494  and  _495
REMARK  199  A    between atoms: _494  and  _497
REMARK  200  A    between atoms: _497  and  _498
REMARK  201  A    between atoms: _498  and  _499
REMARK  202  A    between atoms: _499  and  _500
REMARK  203  A    between atoms: _500  and  _501
REMARK  204  A    between atoms: _505  and  _507
REMARK  205  A    between atoms: _507  and  _508
REMARK  206  A    between atoms: _507  and  _510
REMARK  207  A    between atoms: _513  and  _515
REMARK  208  A    between atoms: _515  and  _516
REMARK  209  A    between atoms: _519  and  _521
REMARK  210  A    between atoms: _521  and  _522
REMARK  211  A    between atoms: _521  and  _524
REMARK  212  A    between atoms: _524  and  _525
REMARK  213  A    between atoms: _528  and  _530
REMARK  214  A    between atoms: _530  and  _531
REMARK  215  A    between atoms: _530  and  _533
REMARK  216  A    between atoms: _533  and  _534
REMARK  217  A    between atoms: _540  and  _541
REMARK  218  A    between atoms: _546  and  _548
REMARK  219  A    between atoms: _548  and  _549
REMARK  220  A    between atoms: _548  and  _551
REMARK  221  A    between atoms: _551  and  _552
REMARK  222  A    between atoms: _558  and  _560
REMARK  223  A    between atoms: _560  and  _561
REMARK  224  A    between atoms: _560  and  _563
REMARK  225  A    between atoms: _563  and  _564
REMARK  226  A    between atoms: _567  and  _569
REMARK  227  A    between atoms: _569  and  _570
REMARK  228  A    between atoms: _572  and  _574
REMARK  229  A    between atoms: _574  and  _575
REMARK  230  A    between atoms: _574  and  _577
REMARK  231  A    between atoms: _577  and  _578
REMARK  232  A    between atoms: _581  and  _583
REMARK  233  A    between atoms: _583  and  _584
REMARK  234  A    between atoms: _583  and  _586
REMARK  235  A    between atoms: _586  and  _587
REMARK  236  A    between atoms: _593  and  _595
REMARK  237  A    between atoms: _595  and  _596
REMARK  238  A    between atoms: _595  and  _598
REMARK  239  A    between atoms: _598  and  _599
REMARK  240  A    between atoms: _599  and  _600
REMARK  241  A    between atoms: _605  and  _607
REMARK  242  A    between atoms: _607  and  _608
REMARK  243  A    between atoms: _607  and  _610
REMARK  244  A    between atoms: _610  and  _611
REMARK  245  A    between atoms: _614  and  _616
REMARK  246  A    between atoms: _616  and  _617
REMARK  247  A    between atoms: _616  and  _619
REMARK  248  A    between atoms: _619  and  _620
REMARK  249  A    between atoms: _622  and  _624
REMARK  250  A    between atoms: _624  and  _625
REMARK  251  A    between atoms: _624  and  _627
REMARK  252  A    between atoms: _627  and  _628
REMARK  253  A    between atoms: _634  and  _636
REMARK  254  A    between atoms: _636  and  _637
REMARK  255  A    between atoms: _636  and  _639
REMARK  256  A    between atoms: _639  and  _640
REMARK  257  A    between atoms: _645  and  _646
REMARK  258  A    between atoms: _648  and  _650
REMARK  259  A    between atoms: _650  and  _651
REMARK  260  A    between atoms: _650  and  _653
REMARK  261  A    between atoms: _653  and  _654
REMARK                            x       y       z     vdW  Elec       q    Type
REMARK                         _______ _______ _______ _____ _____    ______ ____
ROOT
ATOM      1  O   HOH     1      17.312  -4.124 -45.253  0.00  0.00    +0.000 OA
ENDROOT
TORSDOF 0
REMARK  Name = ../refined-set-2016/4idn/4idn_pocket.pdb
REMARK  261 active torsions:
REMARK  status: ('A' for Active; 'I' for Inactive)
REMARK    1  A    between atoms: _1  and  _3
REMARK    2  A    between atoms: _3  and  _4
REMARK    3  A    between atoms: _3  and  _6
REMARK    4  A    between atoms: _9  and  _11
REMARK    5  A    between atoms: _11  and  _12
REMARK    6  A    between atoms: _15  and  _17
REMARK    7  A    between atoms: _17  and  _18
REMARK    8  A    between atoms: _20  and  _22
REMARK    9  A    between atoms: _22  and  _23
REMARK   10  A    between atoms: _26  and  _28
REMARK   11  A    between atoms: _28  and  _29
REMARK   12  A    between atoms: _28  and  _31
REMARK   13  A    between atoms: _31  and  _32
REMARK   14  A    between atoms: _38  and  _40
REMARK   15  A    between atoms: _40  and  _41
REMARK   16  A    between atoms: _40  and  _43
REMARK   17  A    between atoms: _43  and  _44
REMARK   18  A    between atoms: _44  and  _45
REMARK   19  A    between atoms: _45  and  _46
REMARK   20  A    between atoms: _55  and  _57
REMARK   21  A    between atoms: _57  and  _58
REMARK   22  A    between atoms: _57  and  _60
REMARK   23  A    between atoms: _60  and  _61
REMARK   24  A    between atoms: _61  and  _62
REMARK   25  A    between atoms: _62  and  _63
REMARK   26  A    between atoms: _63  and  _64
REMARK   27  A    between atoms: _68  and  _70
REMARK   28  A    between atoms: _70  and  _71
REMARK   29  A    between atoms: _73  and  _75
REMARK   30  A    between atoms: _75  and  _76
REMARK   31  A    between atoms: _75  and  _78
REMARK   32  A    between atoms: _78  and  _79
REMARK   33  A    between atoms: _79  and  _80
REMARK   34  A    between atoms: _80  and  _81
REMARK   35  A    between atoms: _81  and  _82
REMARK   36  A    between atoms: _86  and  _88
REMARK   37  A    between atoms: _88  and  _89
REMARK   38  A    between atoms: _88  and  _91
REMARK   39  A    between atoms: _91  and  _92
REMARK   40  A    between atoms: _94  and  _96
REMARK   41  A    between atoms: _96  and  _97
REMARK   42  A    between atoms: _96  and  _99
REMARK   43  A    between atoms: _99  and  _100
REMARK   44  A    between atoms: _106  and  _108
REMARK   45  A    between atoms: _108  and  _109
REMARK   46  A    between atoms: _108  and  _111
REMARK   47  A    between atoms: _111  and  _112
REMARK   48  A    between atoms: _115  and  _117
REMARK   49  A    between atoms: _117  and  _118
REMARK   50  A    between atoms: _117  and  _120
REMARK   51  A    between atoms: _120  and  _121
REMARK   52  A    between atoms: _121  and  _122
REMARK   53  A    between atoms: _124  and  _126
REMARK   54  A    between atoms: _126  and  _127
REMARK   55  A    between atoms: _126  and  _129
REMARK   56  A    between atoms: _129  and  _130
REMARK   57  A    between atoms: _133  and  _135
REMARK   58  A    between atoms: _135  and  _136
REMARK   59  A    between atoms: _135  and  _138
REMARK   60  A    between atoms: _138  and  _139
REMARK   61  A    between atoms: _145  and  _147
REMARK   62  A    between atoms: _147  and  _148
REMARK   63  A    between atoms: _147  and  _150
REMARK   64  A    between atoms: _150  and  _151
REMARK   65  A    between atoms: _154  and  _156
REMARK   66  A    between atoms: _156  and  _157
REMARK   67  A    between atoms: _156  and  _159
REMARK   68  A    between atoms: _159  and  _160
REMARK   69  A    between atoms: _166  and  _168
REMARK   70  A    between atoms: _168  and  _169
REMARK   71  A    between atoms: _168  and  _171
REMARK   72  A    between atoms: _171  and  _172
REMARK   73  A    between atoms: _174  and  _176
REMARK   74  A    between atoms: _176  and  _177
REMARK   75  A    between atoms: _176  and  _179
REMARK   76  A    between atoms: _179  and  _180
REMARK   77  A    between atoms: _190  and  _192
REMARK   78  A    between atoms: _192  and  _193
REMARK   79  A    between atoms: _192  and  _195
REMARK   80  A    between atoms: _195  and  _196
REMARK   81  A    between atoms: _196  and  _197
REMARK   82  A    between atoms: _197  and  _198
REMARK   83  A    between atoms: _207  and  _209
REMARK   84  A    between atoms: _209  and  _210
REMARK   85  A    between atoms: _212  and  _214
REMARK   86  A    between atoms: _214  and  _215
REMARK   87  A    between atoms: _217  and  _219
REMARK   88  A    between atoms: _219  and  _220
REMARK   89  A    between atoms: _219  and  _222
REMARK   90  A    between atoms: _222  and  _223
REMARK   91  A    between atoms: _225  and  _227
REMARK   92  A    between atoms: _227  and  _228
REMARK   93  A    between atoms: _227  and  _230
REMARK   94  A    between atoms: _230  and  _231
REMARK   95  A    between atoms: _231  and  _232
REMARK   96  A    between atoms: _235  and  _237
REMARK   97  A    between atoms: _237  and  _238
REMARK   98  A    between atoms: _237  and  _240
REMARK   99  A    between atoms: _240  and  _241
REMARK  100  A    between atoms: _241  and  _242
REMARK  101  A    between atoms: _242  and  _243
REMARK  102  A    between atoms: _252  and  _254
REMARK  103  A    between atoms: _254  and  _255
REMARK  104  A    between atoms: _254  and  _257
REMARK  105  A    between atoms: _257  and  _258
REMARK  106  A    between atoms: _258  and  _259
REMARK  107  A    between atoms: _262  and  _264
REMARK  108  A    between atoms: _264  and  _265
REMARK  109  A    between atoms: _264  and  _267
REMARK  110  A    between atoms: _267  and  _268
REMARK  111  A    between atoms: _271  and  _273
REMARK  112  A    between atoms: _273  and  _274
REMARK  113  A    between atoms: _273  and  _276
REMARK  114  A    between atoms: _276  and  _277
REMARK  115  A    between atoms: _280  and  _282
REMARK  116  A    between atoms: _282  and  _283
REMARK  117  A    between atoms: _282  and  _285
REMARK  118  A    between atoms: _285  and  _286
REMARK  119  A    between atoms: _286  and  _287
REMARK  120  A    between atoms: _292  and  _294
REMARK  121  A    between atoms: _294  and  _295
REMARK  122  A    between atoms: _294  and  _297
REMARK  123  A    between atoms: _297  and  _298
REMARK  124  A    between atoms: _301  and  _303
REMARK  125  A    between atoms: _303  and  _304
REMARK  126  A    between atoms: _303  and  _306
REMARK  127  A    between atoms: _306  and  _307
REMARK  128  A    between atoms: _310  and  _312
REMARK  129  A    between atoms: _312  and  _313
REMARK  130  A    between atoms: _312  and  _315
REMARK  131  A    between atoms: _315  and  _316
REMARK  132  A    between atoms: _316  and  _317
REMARK  133  A    between atoms: _322  and  _324
REMARK  134  A    between atoms: _324  and  _325
REMARK  135  A    between atoms: _327  and  _329
REMARK  136  A    between atoms: _329  and  _330
REMARK  137  A    between atoms: _329  and  _332
REMARK  138  A    between atoms: _332  and  _333
REMARK  139  A    between atoms: _336  and  _338
REMARK  140  A    between atoms: _338  and  _339
REMARK  141  A    between atoms: _338  and  _341
REMARK  142  A    between atoms: _341  and  _342
REMARK  143  A    between atoms: _345  and  _347
REMARK  144  A    between atoms: _347  and  _348
REMARK  145  A    between atoms: _347  and  _350
REMARK  146  A    between atoms: _350  and  _351
REMARK  147  A    between atoms: _356  and  _358
REMARK  148  A    between atoms: _358  and  _359
REMARK  149  A    between atoms: _358  and  _361
REMARK  150  A    between atoms: _361  and  _362
REMARK  151  A    between atoms: _365  and  _367
REMARK  152  A    between atoms: _367  and  _368
REMARK  153  A    between atoms: _367  and  _370
REMARK  154  A    between atoms: _370  and  _371
REMARK  155  A    between atoms: _373  and  _375
REMARK  156  A    between atoms: _375  and  _376
REMARK  157  A    between atoms: _375  and  _378
REMARK  158  A    between atoms: _378  and  _379
REMARK  159  A    between atoms: _379  and  _380
REMARK  160  A    between atoms: _385  and  _387
REMARK  161  A    between atoms: _387  and  _388
REMARK  162  A    between atoms: _387  and  _390
REMARK  163  A    between atoms: _390  and  _391
REMARK  164  A    between atoms: _394  and  _396
REMARK  165  A    between atoms: _396  and  _397
REMARK  166  A    between atoms: _396  and  _399
REMARK  167  A    between atoms: _402  and  _404
REMARK  168  A    between atoms: _404  and  _405
REMARK  169  A    between atoms: _404  and  _407
REMARK  170  A    between atoms: _407  and  _408
REMARK  171  A    between atoms: _408  and  _409
REMARK  172  A    between atoms: _409  and  _410
REMARK  173  A    between atoms: _419  and  _421
REMARK  174  A    between atoms: _421  and  _422
REMARK  175  A    between atoms: _421  and  _424
REMARK  176  A    between atoms: _424  and  _425
REMARK  177  A    between atoms: _428  and  _430
REMARK  178  A    between atoms: _430  and  _431
REMARK  179  A    between atoms: _430  and  _433
REMARK  180  A    between atoms: _433  and  _434
REMARK  181  A    between atoms: _444  and  _446
REMARK  182  A    between atoms: _446  and  _447
REMARK  183  A    between atoms: _446  and  _449
REMARK  184  A    between atoms: _449  and  _450
REMARK  185  A    between atoms: _454  and  _455
REMARK  186  A    between atoms: _460  and  _462
REMARK  187  A    between atoms: _462  and  _463
REMARK  188  A    between atoms: _462  and  _465
REMARK  189  A    between atoms: _465  and  _466
REMARK  190  A    between atoms: _472  and  _473
REMARK  191  A    between atoms: _478  and  _480
REMARK  192  A    between atoms: _480  and  _481
REMARK  193  A    between atoms: _483  and  _485
REMARK  194  A    between atoms: _485  and  _486
REMARK  195  A    between atoms: _485  and  _488
REMARK  196  A    between atoms: _488  and  _489
REMARK  197  A    between atoms: _492  and  _494
REMARK  198  A    between atoms: _494  and  _495
REMARK  199  A    between atoms: _494  and  _497
REMARK  200  A    between atoms: _497  and  _498
REMARK  201  A    between atoms: _498  and  _499
REMARK  202  A    between atoms: _499  and  _500
REMARK  203  A    between atoms: _500  and  _501
REMARK  204  A    between atoms: _505  and  _507
REMARK  205  A    between atoms: _507  and  _508
REMARK  206  A    between atoms: _507  and  _510
REMARK  207  A    between atoms: _513  and  _515
REMARK  208  A    between atoms: _515  and  _516
REMARK  209  A    between atoms: _519  and  _521
REMARK  210  A    between atoms: _521  and  _522
REMARK  211  A    between atoms: _521  and  _524
REMARK  212  A    between atoms: _524  and  _525
REMARK  213  A    between atoms: _528  and  _530
REMARK  214  A    between atoms: _530  and  _531
REMARK  215  A    between atoms: _530  and  _533
REMARK  216  A    between atoms: _533  and  _534
REMARK  217  A    between atoms: _540  and  _541
REMARK  218  A    between atoms: _546  and  _548
REMARK  219  A    between atoms: _548  and  _549
REMARK  220  A    between atoms: _548  and  _551
REMARK  221  A    between atoms: _551  and  _552
REMARK  222  A    between atoms: _558  and  _560
REMARK  223  A    between atoms: _560  and  _561
REMARK  224  A    between atoms: _560  and  _563
REMARK  225  A    between atoms: _563  and  _564
REMARK  226  A    between atoms: _567  and  _569
REMARK  227  A    between atoms: _569  and  _570
REMARK  228  A    between atoms: _572  and  _574
REMARK  229  A    between atoms: _574  and  _575
REMARK  230  A    between atoms: _574  and  _577
REMARK  231  A    between atoms: _577  and  _578
REMARK  232  A    between atoms: _581  and  _583
REMARK  233  A    between atoms: _583  and  _584
REMARK  234  A    between atoms: _583  and  _586
REMARK  235  A    between atoms: _586  and  _587
REMARK  236  A    between atoms: _593  and  _595
REMARK  237  A    between atoms: _595  and  _596
REMARK  238  A    between atoms: _595  and  _598
REMARK  239  A    between atoms: _598  and  _599
REMARK  240  A    between atoms: _599  and  _600
REMARK  241  A    between atoms: _605  and  _607
REMARK  242  A    between atoms: _607  and  _608
REMARK  243  A    between atoms: _607  and  _610
REMARK  244  A    between atoms: _610  and  _611
REMARK  245  A    between atoms: _614  and  _616
REMARK  246  A    between atoms: _616  and  _617
REMARK  247  A    between atoms: _616  and  _619
REMARK  248  A    between atoms: _619  and  _620
REMARK  249  A    between atoms: _622  and  _624
REMARK  250  A    between atoms: _624  and  _625
REMARK  251  A    between atoms: _624  and  _627
REMARK  252  A    between atoms: _627  and  _628
REMARK  253  A    between atoms: _634  and  _636
REMARK  254  A    between atoms: _636  and  _637
REMARK  255  A    between atoms: _636  and  _639
REMARK  256  A    between atoms: _639  and  _640
REMARK  257  A    between atoms: _645  and  _646
REMARK  258  A    between atoms: _648  and  _650
REMARK  259  A    between atoms: _650  and  _651
REMARK  260  A    between atoms: _650  and  _653
REMARK  261  A    between atoms: _653  and  _654
REMARK                            x       y       z     vdW  Elec       q    Type
REMARK                         _______ _______ _______ _____ _____    ______ ____
ROOT
ATOM      1  O   HOH     1      33.725   5.465 -44.829  0.00  0.00    +0.000 OA
ENDROOT
TORSDOF 0
REMARK  Name = ../refined-set-2016/4idn/4idn_pocket.pdb
REMARK  261 active torsions:
REMARK  status: ('A' for Active; 'I' for Inactive)
REMARK    1  A    between atoms: _1  and  _3
REMARK    2  A    between atoms: _3  and  _4
REMARK    3  A    between atoms: _3  and  _6
REMARK    4  A    between atoms: _9  and  _11
REMARK    5  A    between atoms: _11  and  _12
REMARK    6  A    between atoms: _15  and  _17
REMARK    7  A    between atoms: _17  and  _18
REMARK    8  A    between atoms: _20  and  _22
REMARK    9  A    between atoms: _22  and  _23
REMARK   10  A    between atoms: _26  and  _28
REMARK   11  A    between atoms: _28  and  _29
REMARK   12  A    between atoms: _28  and  _31
REMARK   13  A    between atoms: _31  and  _32
REMARK   14  A    between atoms: _38  and  _40
REMARK   15  A    between atoms: _40  and  _41
REMARK   16  A    between atoms: _40  and  _43
REMARK   17  A    between atoms: _43  and  _44
REMARK   18  A    between atoms: _44  and  _45
REMARK   19  A    between atoms: _45  and  _46
REMARK   20  A    between atoms: _55  and  _57
REMARK   21  A    between atoms: _57  and  _58
REMARK   22  A    between atoms: _57  and  _60
REMARK   23  A    between atoms: _60  and  _61
REMARK   24  A    between atoms: _61  and  _62
REMARK   25  A    between atoms: _62  and  _63
REMARK   26  A    between atoms: _63  and  _64
REMARK   27  A    between atoms: _68  and  _70
REMARK   28  A    between atoms: _70  and  _71
REMARK   29  A    between atoms: _73  and  _75
REMARK   30  A    between atoms: _75  and  _76
REMARK   31  A    between atoms: _75  and  _78
REMARK   32  A    between atoms: _78  and  _79
REMARK   33  A    between atoms: _79  and  _80
REMARK   34  A    between atoms: _80  and  _81
REMARK   35  A    between atoms: _81  and  _82
REMARK   36  A    between atoms: _86  and  _88
REMARK   37  A    between atoms: _88  and  _89
REMARK   38  A    between atoms: _88  and  _91
REMARK   39  A    between atoms: _91  and  _92
REMARK   40  A    between atoms: _94  and  _96
REMARK   41  A    between atoms: _96  and  _97
REMARK   42  A    between atoms: _96  and  _99
REMARK   43  A    between atoms: _99  and  _100
REMARK   44  A    between atoms: _106  and  _108
REMARK   45  A    between atoms: _108  and  _109
REMARK   46  A    between atoms: _108  and  _111
REMARK   47  A    between atoms: _111  and  _112
REMARK   48  A    between atoms: _115  and  _117
REMARK   49  A    between atoms: _117  and  _118
REMARK   50  A    between atoms: _117  and  _120
REMARK   51  A    between atoms: _120  and  _121
REMARK   52  A    between atoms: _121  and  _122
REMARK   53  A    between atoms: _124  and  _126
REMARK   54  A    between atoms: _126  and  _127
REMARK   55  A    between atoms: _126  and  _129
REMARK   56  A    between atoms: _129  and  _130
REMARK   57  A    between atoms: _133  and  _135
REMARK   58  A    between atoms: _135  and  _136
REMARK   59  A    between atoms: _135  and  _138
REMARK   60  A    between atoms: _138  and  _139
REMARK   61  A    between atoms: _145  and  _147
REMARK   62  A    between atoms: _147  and  _148
REMARK   63  A    between atoms: _147  and  _150
REMARK   64  A    between atoms: _150  and  _151
REMARK   65  A    between atoms: _154  and  _156
REMARK   66  A    between atoms: _156  and  _157
REMARK   67  A    between atoms: _156  and  _159
REMARK   68  A    between atoms: _159  and  _160
REMARK   69  A    between atoms: _166  and  _168
REMARK   70  A    between atoms: _168  and  _169
REMARK   71  A    between atoms: _168  and  _171
REMARK   72  A    between atoms: _171  and  _172
REMARK   73  A    between atoms: _174  and  _176
REMARK   74  A    between atoms: _176  and  _177
REMARK   75  A    between atoms: _176  and  _179
REMARK   76  A    between atoms: _179  and  _180
REMARK   77  A    between atoms: _190  and  _192
REMARK   78  A    between atoms: _192  and  _193
REMARK   79  A    between atoms: _192  and  _195
REMARK   80  A    between atoms: _195  and  _196
REMARK   81  A    between atoms: _196  and  _197
REMARK   82  A    between atoms: _197  and  _198
REMARK   83  A    between atoms: _207  and  _209
REMARK   84  A    between atoms: _209  and  _210
REMARK   85  A    between atoms: _212  and  _214
REMARK   86  A    between atoms: _214  and  _215
REMARK   87  A    between atoms: _217  and  _219
REMARK   88  A    between atoms: _219  and  _220
REMARK   89  A    between atoms: _219  and  _222
REMARK   90  A    between atoms: _222  and  _223
REMARK   91  A    between atoms: _225  and  _227
REMARK   92  A    between atoms: _227  and  _228
REMARK   93  A    between atoms: _227  and  _230
REMARK   94  A    between atoms: _230  and  _231
REMARK   95  A    between atoms: _231  and  _232
REMARK   96  A    between atoms: _235  and  _237
REMARK   97  A    between atoms: _237  and  _238
REMARK   98  A    between atoms: _237  and  _240
REMARK   99  A    between atoms: _240  and  _241
REMARK  100  A    between atoms: _241  and  _242
REMARK  101  A    between atoms: _242  and  _243
REMARK  102  A    between atoms: _252  and  _254
REMARK  103  A    between atoms: _254  and  _255
REMARK  104  A    between atoms: _254  and  _257
REMARK  105  A    between atoms: _257  and  _258
REMARK  106  A    between atoms: _258  and  _259
REMARK  107  A    between atoms: _262  and  _264
REMARK  108  A    between atoms: _264  and  _265
REMARK  109  A    between atoms: _264  and  _267
REMARK  110  A    between atoms: _267  and  _268
REMARK  111  A    between atoms: _271  and  _273
REMARK  112  A    between atoms: _273  and  _274
REMARK  113  A    between atoms: _273  and  _276
REMARK  114  A    between atoms: _276  and  _277
REMARK  115  A    between atoms: _280  and  _282
REMARK  116  A    between atoms: _282  and  _283
REMARK  117  A    between atoms: _282  and  _285
REMARK  118  A    between atoms: _285  and  _286
REMARK  119  A    between atoms: _286  and  _287
REMARK  120  A    between atoms: _292  and  _294
REMARK  121  A    between atoms: _294  and  _295
REMARK  122  A    between atoms: _294  and  _297
REMARK  123  A    between atoms: _297  and  _298
REMARK  124  A    between atoms: _301  and  _303
REMARK  125  A    between atoms: _303  and  _304
REMARK  126  A    between atoms: _303  and  _306
REMARK  127  A    between atoms: _306  and  _307
REMARK  128  A    between atoms: _310  and  _312
REMARK  129  A    between atoms: _312  and  _313
REMARK  130  A    between atoms: _312  and  _315
REMARK  131  A    between atoms: _315  and  _316
REMARK  132  A    between atoms: _316  and  _317
REMARK  133  A    between atoms: _322  and  _324
REMARK  134  A    between atoms: _324  and  _325
REMARK  135  A    between atoms: _327  and  _329
REMARK  136  A    between atoms: _329  and  _330
REMARK  137  A    between atoms: _329  and  _332
REMARK  138  A    between atoms: _332  and  _333
REMARK  139  A    between atoms: _336  and  _338
REMARK  140  A    between atoms: _338  and  _339
REMARK  141  A    between atoms: _338  and  _341
REMARK  142  A    between atoms: _341  and  _342
REMARK  143  A    between atoms: _345  and  _347
REMARK  144  A    between atoms: _347  and  _348
REMARK  145  A    between atoms: _347  and  _350
REMARK  146  A    between atoms: _350  and  _351
REMARK  147  A    between atoms: _356  and  _358
REMARK  148  A    between atoms: _358  and  _359
REMARK  149  A    between atoms: _358  and  _361
REMARK  150  A    between atoms: _361  and  _362
REMARK  151  A    between atoms: _365  and  _367
REMARK  152  A    between atoms: _367  and  _368
REMARK  153  A    between atoms: _367  and  _370
REMARK  154  A    between atoms: _370  and  _371
REMARK  155  A    between atoms: _373  and  _375
REMARK  156  A    between atoms: _375  and  _376
REMARK  157  A    between atoms: _375  and  _378
REMARK  158  A    between atoms: _378  and  _379
REMARK  159  A    between atoms: _379  and  _380
REMARK  160  A    between atoms: _385  and  _387
REMARK  161  A    between atoms: _387  and  _388
REMARK  162  A    between atoms: _387  and  _390
REMARK  163  A    between atoms: _390  and  _391
REMARK  164  A    between atoms: _394  and  _396
REMARK  165  A    between atoms: _396  and  _397
REMARK  166  A    between atoms: _396  and  _399
REMARK  167  A    between atoms: _402  and  _404
REMARK  168  A    between atoms: _404  and  _405
REMARK  169  A    between atoms: _404  and  _407
REMARK  170  A    between atoms: _407  and  _408
REMARK  171  A    between atoms: _408  and  _409
REMARK  172  A    between atoms: _409  and  _410
REMARK  173  A    between atoms: _419  and  _421
REMARK  174  A    between atoms: _421  and  _422
REMARK  175  A    between atoms: _421  and  _424
REMARK  176  A    between atoms: _424  and  _425
REMARK  177  A    between atoms: _428  and  _430
REMARK  178  A    between atoms: _430  and  _431
REMARK  179  A    between atoms: _430  and  _433
REMARK  180  A    between atoms: _433  and  _434
REMARK  181  A    between atoms: _444  and  _446
REMARK  182  A    between atoms: _446  and  _447
REMARK  183  A    between atoms: _446  and  _449
REMARK  184  A    between atoms: _449  and  _450
REMARK  185  A    between atoms: _454  and  _455
REMARK  186  A    between atoms: _460  and  _462
REMARK  187  A    between atoms: _462  and  _463
REMARK  188  A    between atoms: _462  and  _465
REMARK  189  A    between atoms: _465  and  _466
REMARK  190  A    between atoms: _472  and  _473
REMARK  191  A    between atoms: _478  and  _480
REMARK  192  A    between atoms: _480  and  _481
REMARK  193  A    between atoms: _483  and  _485
REMARK  194  A    between atoms: _485  and  _486
REMARK  195  A    between atoms: _485  and  _488
REMARK  196  A    between atoms: _488  and  _489
REMARK  197  A    between atoms: _492  and  _494
REMARK  198  A    between atoms: _494  and  _495
REMARK  199  A    between atoms: _494  and  _497
REMARK  200  A    between atoms: _497  and  _498
REMARK  201  A    between atoms: _498  and  _499
REMARK  202  A    between atoms: _499  and  _500
REMARK  203  A    between atoms: _500  and  _501
REMARK  204  A    between atoms: _505  and  _507
REMARK  205  A    between atoms: _507  and  _508
REMARK  206  A    between atoms: _507  and  _510
REMARK  207  A    between atoms: _513  and  _515
REMARK  208  A    between atoms: _515  and  _516
REMARK  209  A    between atoms: _519  and  _521
REMARK  210  A    between atoms: _521  and  _522
REMARK  211  A    between atoms: _521  and  _524
REMARK  212  A    between atoms: _524  and  _525
REMARK  213  A    between atoms: _528  and  _530
REMARK  214  A    between atoms: _530  and  _531
REMARK  215  A    between atoms: _530  and  _533
REMARK  216  A    between atoms: _533  and  _534
REMARK  217  A    between atoms: _540  and  _541
REMARK  218  A    between atoms: _546  and  _548
REMARK  219  A    between atoms: _548  and  _549
REMARK  220  A    between atoms: _548  and  _551
REMARK  221  A    between atoms: _551  and  _552
REMARK  222  A    between atoms: _558  and  _560
REMARK  223  A    between atoms: _560  and  _561
REMARK  224  A    between atoms: _560  and  _563
REMARK  225  A    between atoms: _563  and  _564
REMARK  226  A    between atoms: _567  and  _569
REMARK  227  A    between atoms: _569  and  _570
REMARK  228  A    between atoms: _572  and  _574
REMARK  229  A    between atoms: _574  and  _575
REMARK  230  A    between atoms: _574  and  _577
REMARK  231  A    between atoms: _577  and  _578
REMARK  232  A    between atoms: _581  and  _583
REMARK  233  A    between atoms: _583  and  _584
REMARK  234  A    between atoms: _583  and  _586
REMARK  235  A    between atoms: _586  and  _587
REMARK  236  A    between atoms: _593  and  _595
REMARK  237  A    between atoms: _595  and  _596
REMARK  238  A    between atoms: _595  and  _598
REMARK  239  A    between atoms: _598  and  _599
REMARK  240  A    between atoms: _599  and  _600
REMARK  241  A    between atoms: _605  and  _607
REMARK  242  A    between atoms: _607  and  _608
REMARK  243  A    between atoms: _607  and  _610
REMARK  244  A    between atoms: _610  and  _611
REMARK  245  A    between atoms: _614  and  _616
REMARK  246  A    between atoms: _616  and  _617
REMARK  247  A    between atoms: _616  and  _619
REMARK  248  A    between atoms: _619  and  _620
REMARK  249  A    between atoms: _622  and  _624
REMARK  250  A    between atoms: _624  and  _625
REMARK  251  A    between atoms: _624  and  _627
REMARK  252  A    between atoms: _627  and  _628
REMARK  253  A    between atoms: _634  and  _636
REMARK  254  A    between atoms: _636  and  _637
REMARK  255  A    between atoms: _636  and  _639
REMARK  256  A    between atoms: _639  and  _640
REMARK  257  A    between atoms: _645  and  _646
REMARK  258  A    between atoms: _648  and  _650
REMARK  259  A    between atoms: _650  and  _651
REMARK  260  A    between atoms: _650  and  _653
REMARK  261  A    between atoms: _653  and  _654
REMARK                            x       y       z     vdW  Elec       q    Type
REMARK                         _______ _______ _______ _____ _____    ______ ____
ROOT
ATOM      1  O   HOH     1      39.929   2.165 -44.372  0.00  0.00    +0.000 OA
ENDROOT
TORSDOF 0
REMARK  Name = ../refined-set-2016/4idn/4idn_pocket.pdb
REMARK  261 active torsions:
REMARK  status: ('A' for Active; 'I' for Inactive)
REMARK    1  A    between atoms: _1  and  _3
REMARK    2  A    between atoms: _3  and  _4
REMARK    3  A    between atoms: _3  and  _6
REMARK    4  A    between atoms: _9  and  _11
REMARK    5  A    between atoms: _11  and  _12
REMARK    6  A    between atoms: _15  and  _17
REMARK    7  A    between atoms: _17  and  _18
REMARK    8  A    between atoms: _20  and  _22
REMARK    9  A    between atoms: _22  and  _23
REMARK   10  A    between atoms: _26  and  _28
REMARK   11  A    between atoms: _28  and  _29
REMARK   12  A    between atoms: _28  and  _31
REMARK   13  A    between atoms: _31  and  _32
REMARK   14  A    between atoms: _38  and  _40
REMARK   15  A    between atoms: _40  and  _41
REMARK   16  A    between atoms: _40  and  _43
REMARK   17  A    between atoms: _43  and  _44
REMARK   18  A    between atoms: _44  and  _45
REMARK   19  A    between atoms: _45  and  _46
REMARK   20  A    between atoms: _55  and  _57
REMARK   21  A    between atoms: _57  and  _58
REMARK   22  A    between atoms: _57  and  _60
REMARK   23  A    between atoms: _60  and  _61
REMARK   24  A    between atoms: _61  and  _62
REMARK   25  A    between atoms: _62  and  _63
REMARK   26  A    between atoms: _63  and  _64
REMARK   27  A    between atoms: _68  and  _70
REMARK   28  A    between atoms: _70  and  _71
REMARK   29  A    between atoms: _73  and  _75
REMARK   30  A    between atoms: _75  and  _76
REMARK   31  A    between atoms: _75  and  _78
REMARK   32  A    between atoms: _78  and  _79
REMARK   33  A    between atoms: _79  and  _80
REMARK   34  A    between atoms: _80  and  _81
REMARK   35  A    between atoms: _81  and  _82
REMARK   36  A    between atoms: _86  and  _88
REMARK   37  A    between atoms: _88  and  _89
REMARK   38  A    between atoms: _88  and  _91
REMARK   39  A    between atoms: _91  and  _92
REMARK   40  A    between atoms: _94  and  _96
REMARK   41  A    between atoms: _96  and  _97
REMARK   42  A    between atoms: _96  and  _99
REMARK   43  A    between atoms: _99  and  _100
REMARK   44  A    between atoms: _106  and  _108
REMARK   45  A    between atoms: _108  and  _109
REMARK   46  A    between atoms: _108  and  _111
REMARK   47  A    between atoms: _111  and  _112
REMARK   48  A    between atoms: _115  and  _117
REMARK   49  A    between atoms: _117  and  _118
REMARK   50  A    between atoms: _117  and  _120
REMARK   51  A    between atoms: _120  and  _121
REMARK   52  A    between atoms: _121  and  _122
REMARK   53  A    between atoms: _124  and  _126
REMARK   54  A    between atoms: _126  and  _127
REMARK   55  A    between atoms: _126  and  _129
REMARK   56  A    between atoms: _129  and  _130
REMARK   57  A    between atoms: _133  and  _135
REMARK   58  A    between atoms: _135  and  _136
REMARK   59  A    between atoms: _135  and  _138
REMARK   60  A    between atoms: _138  and  _139
REMARK   61  A    between atoms: _145  and  _147
REMARK   62  A    between atoms: _147  and  _148
REMARK   63  A    between atoms: _147  and  _150
REMARK   64  A    between atoms: _150  and  _151
REMARK   65  A    between atoms: _154  and  _156
REMARK   66  A    between atoms: _156  and  _157
REMARK   67  A    between atoms: _156  and  _159
REMARK   68  A    between atoms: _159  and  _160
REMARK   69  A    between atoms: _166  and  _168
REMARK   70  A    between atoms: _168  and  _169
REMARK   71  A    between atoms: _168  and  _171
REMARK   72  A    between atoms: _171  and  _172
REMARK   73  A    between atoms: _174  and  _176
REMARK   74  A    between atoms: _176  and  _177
REMARK   75  A    between atoms: _176  and  _179
REMARK   76  A    between atoms: _179  and  _180
REMARK   77  A    between atoms: _190  and  _192
REMARK   78  A    between atoms: _192  and  _193
REMARK   79  A    between atoms: _192  and  _195
REMARK   80  A    between atoms: _195  and  _196
REMARK   81  A    between atoms: _196  and  _197
REMARK   82  A    between atoms: _197  and  _198
REMARK   83  A    between atoms: _207  and  _209
REMARK   84  A    between atoms: _209  and  _210
REMARK   85  A    between atoms: _212  and  _214
REMARK   86  A    between atoms: _214  and  _215
REMARK   87  A    between atoms: _217  and  _219
REMARK   88  A    between atoms: _219  and  _220
REMARK   89  A    between atoms: _219  and  _222
REMARK   90  A    between atoms: _222  and  _223
REMARK   91  A    between atoms: _225  and  _227
REMARK   92  A    between atoms: _227  and  _228
REMARK   93  A    between atoms: _227  and  _230
REMARK   94  A    between atoms: _230  and  _231
REMARK   95  A    between atoms: _231  and  _232
REMARK   96  A    between atoms: _235  and  _237
REMARK   97  A    between atoms: _237  and  _238
REMARK   98  A    between atoms: _237  and  _240
REMARK   99  A    between atoms: _240  and  _241
REMARK  100  A    between atoms: _241  and  _242
REMARK  101  A    between atoms: _242  and  _243
REMARK  102  A    between atoms: _252  and  _254
REMARK  103  A    between atoms: _254  and  _255
REMARK  104  A    between atoms: _254  and  _257
REMARK  105  A    between atoms: _257  and  _258
REMARK  106  A    between atoms: _258  and  _259
REMARK  107  A    between atoms: _262  and  _264
REMARK  108  A    between atoms: _264  and  _265
REMARK  109  A    between atoms: _264  and  _267
REMARK  110  A    between atoms: _267  and  _268
REMARK  111  A    between atoms: _271  and  _273
REMARK  112  A    between atoms: _273  and  _274
REMARK  113  A    between atoms: _273  and  _276
REMARK  114  A    between atoms: _276  and  _277
REMARK  115  A    between atoms: _280  and  _282
REMARK  116  A    between atoms: _282  and  _283
REMARK  117  A    between atoms: _282  and  _285
REMARK  118  A    between atoms: _285  and  _286
REMARK  119  A    between atoms: _286  and  _287
REMARK  120  A    between atoms: _292  and  _294
REMARK  121  A    between atoms: _294  and  _295
REMARK  122  A    between atoms: _294  and  _297
REMARK  123  A    between atoms: _297  and  _298
REMARK  124  A    between atoms: _301  and  _303
REMARK  125  A    between atoms: _303  and  _304
REMARK  126  A    between atoms: _303  and  _306
REMARK  127  A    between atoms: _306  and  _307
REMARK  128  A    between atoms: _310  and  _312
REMARK  129  A    between atoms: _312  and  _313
REMARK  130  A    between atoms: _312  and  _315
REMARK  131  A    between atoms: _315  and  _316
REMARK  132  A    between atoms: _316  and  _317
REMARK  133  A    between atoms: _322  and  _324
REMARK  134  A    between atoms: _324  and  _325
REMARK  135  A    between atoms: _327  and  _329
REMARK  136  A    between atoms: _329  and  _330
REMARK  137  A    between atoms: _329  and  _332
REMARK  138  A    between atoms: _332  and  _333
REMARK  139  A    between atoms: _336  and  _338
REMARK  140  A    between atoms: _338  and  _339
REMARK  141  A    between atoms: _338  and  _341
REMARK  142  A    between atoms: _341  and  _342
REMARK  143  A    between atoms: _345  and  _347
REMARK  144  A    between atoms: _347  and  _348
REMARK  145  A    between atoms: _347  and  _350
REMARK  146  A    between atoms: _350  and  _351
REMARK  147  A    between atoms: _356  and  _358
REMARK  148  A    between atoms: _358  and  _359
REMARK  149  A    between atoms: _358  and  _361
REMARK  150  A    between atoms: _361  and  _362
REMARK  151  A    between atoms: _365  and  _367
REMARK  152  A    between atoms: _367  and  _368
REMARK  153  A    between atoms: _367  and  _370
REMARK  154  A    between atoms: _370  and  _371
REMARK  155  A    between atoms: _373  and  _375
REMARK  156  A    between atoms: _375  and  _376
REMARK  157  A    between atoms: _375  and  _378
REMARK  158  A    between atoms: _378  and  _379
REMARK  159  A    between atoms: _379  and  _380
REMARK  160  A    between atoms: _385  and  _387
REMARK  161  A    between atoms: _387  and  _388
REMARK  162  A    between atoms: _387  and  _390
REMARK  163  A    between atoms: _390  and  _391
REMARK  164  A    between atoms: _394  and  _396
REMARK  165  A    between atoms: _396  and  _397
REMARK  166  A    between atoms: _396  and  _399
REMARK  167  A    between atoms: _402  and  _404
REMARK  168  A    between atoms: _404  and  _405
REMARK  169  A    between atoms: _404  and  _407
REMARK  170  A    between atoms: _407  and  _408
REMARK  171  A    between atoms: _408  and  _409
REMARK  172  A    between atoms: _409  and  _410
REMARK  173  A    between atoms: _419  and  _421
REMARK  174  A    between atoms: _421  and  _422
REMARK  175  A    between atoms: _421  and  _424
REMARK  176  A    between atoms: _424  and  _425
REMARK  177  A    between atoms: _428  and  _430
REMARK  178  A    between atoms: _430  and  _431
REMARK  179  A    between atoms: _430  and  _433
REMARK  180  A    between atoms: _433  and  _434
REMARK  181  A    between atoms: _444  and  _446
REMARK  182  A    between atoms: _446  and  _447
REMARK  183  A    between atoms: _446  and  _449
REMARK  184  A    between atoms: _449  and  _450
REMARK  185  A    between atoms: _454  and  _455
REMARK  186  A    between atoms: _460  and  _462
REMARK  187  A    between atoms: _462  and  _463
REMARK  188  A    between atoms: _462  and  _465
REMARK  189  A    between atoms: _465  and  _466
REMARK  190  A    between atoms: _472  and  _473
REMARK  191  A    between atoms: _478  and  _480
REMARK  192  A    between atoms: _480  and  _481
REMARK  193  A    between atoms: _483  and  _485
REMARK  194  A    between atoms: _485  and  _486
REMARK  195  A    between atoms: _485  and  _488
REMARK  196  A    between atoms: _488  and  _489
REMARK  197  A    between atoms: _492  and  _494
REMARK  198  A    between atoms: _494  and  _495
REMARK  199  A    between atoms: _494  and  _497
REMARK  200  A    between atoms: _497  and  _498
REMARK  201  A    between atoms: _498  and  _499
REMARK  202  A    between atoms: _499  and  _500
REMARK  203  A    between atoms: _500  and  _501
REMARK  204  A    between atoms: _505  and  _507
REMARK  205  A    between atoms: _507  and  _508
REMARK  206  A    between atoms: _507  and  _510
REMARK  207  A    between atoms: _513  and  _515
REMARK  208  A    between atoms: _515  and  _516
REMARK  209  A    between atoms: _519  and  _521
REMARK  210  A    between atoms: _521  and  _522
REMARK  211  A    between atoms: _521  and  _524
REMARK  212  A    between atoms: _524  and  _525
REMARK  213  A    between atoms: _528  and  _530
REMARK  214  A    between atoms: _530  and  _531
REMARK  215  A    between atoms: _530  and  _533
REMARK  216  A    between atoms: _533  and  _534
REMARK  217  A    between atoms: _540  and  _541
REMARK  218  A    between atoms: _546  and  _548
REMARK  219  A    between atoms: _548  and  _549
REMARK  220  A    between atoms: _548  and  _551
REMARK  221  A    between atoms: _551  and  _552
REMARK  222  A    between atoms: _558  and  _560
REMARK  223  A    between atoms: _560  and  _561
REMARK  224  A    between atoms: _560  and  _563
REMARK  225  A    between atoms: _563  and  _564
REMARK  226  A    between atoms: _567  and  _569
REMARK  227  A    between atoms: _569  and  _570
REMARK  228  A    between atoms: _572  and  _574
REMARK  229  A    between atoms: _574  and  _575
REMARK  230  A    between atoms: _574  and  _577
REMARK  231  A    between atoms: _577  and  _578
REMARK  232  A    between atoms: _581  and  _583
REMARK  233  A    between atoms: _583  and  _584
REMARK  234  A    between atoms: _583  and  _586
REMARK  235  A    between atoms: _586  and  _587
REMARK  236  A    between atoms: _593  and  _595
REMARK  237  A    between atoms: _595  and  _596
REMARK  238  A    between atoms: _595  and  _598
REMARK  239  A    between atoms: _598  and  _599
REMARK  240  A    between atoms: _599  and  _600
REMARK  241  A    between atoms: _605  and  _607
REMARK  242  A    between atoms: _607  and  _608
REMARK  243  A    between atoms: _607  and  _610
REMARK  244  A    between atoms: _610  and  _611
REMARK  245  A    between atoms: _614  and  _616
REMARK  246  A    between atoms: _616  and  _617
REMARK  247  A    between atoms: _616  and  _619
REMARK  248  A    between atoms: _619  and  _620
REMARK  249  A    between atoms: _622  and  _624
REMARK  250  A    between atoms: _624  and  _625
REMARK  251  A    between atoms: _624  and  _627
REMARK  252  A    between atoms: _627  and  _628
REMARK  253  A    between atoms: _634  and  _636
REMARK  254  A    between atoms: _636  and  _637
REMARK  255  A    between atoms: _636  and  _639
REMARK  256  A    between atoms: _639  and  _640
REMARK  257  A    between atoms: _645  and  _646
REMARK  258  A    between atoms: _648  and  _650
REMARK  259  A    between atoms: _650  and  _651
REMARK  260  A    between atoms: _650  and  _653
REMARK  261  A    between atoms: _653  and  _654
REMARK                            x       y       z     vdW  Elec       q    Type
REMARK                         _______ _______ _______ _____ _____    ______ ____
ROOT
ATOM      1  O   HOH     1      35.325   2.662 -43.407  0.00  0.00    +0.000 OA
ENDROOT
TORSDOF 0
REMARK  Name = ../refined-set-2016/4idn/4idn_pocket.pdb
REMARK  261 active torsions:
REMARK  status: ('A' for Active; 'I' for Inactive)
REMARK    1  A    between atoms: _1  and  _3
REMARK    2  A    between atoms: _3  and  _4
REMARK    3  A    between atoms: _3  and  _6
REMARK    4  A    between atoms: _9  and  _11
REMARK    5  A    between atoms: _11  and  _12
REMARK    6  A    between atoms: _15  and  _17
REMARK    7  A    between atoms: _17  and  _18
REMARK    8  A    between atoms: _20  and  _22
REMARK    9  A    between atoms: _22  and  _23
REMARK   10  A    between atoms: _26  and  _28
REMARK   11  A    between atoms: _28  and  _29
REMARK   12  A    between atoms: _28  and  _31
REMARK   13  A    between atoms: _31  and  _32
REMARK   14  A    between atoms: _38  and  _40
REMARK   15  A    between atoms: _40  and  _41
REMARK   16  A    between atoms: _40  and  _43
REMARK   17  A    between atoms: _43  and  _44
REMARK   18  A    between atoms: _44  and  _45
REMARK   19  A    between atoms: _45  and  _46
REMARK   20  A    between atoms: _55  and  _57
REMARK   21  A    between atoms: _57  and  _58
REMARK   22  A    between atoms: _57  and  _60
REMARK   23  A    between atoms: _60  and  _61
REMARK   24  A    between atoms: _61  and  _62
REMARK   25  A    between atoms: _62  and  _63
REMARK   26  A    between atoms: _63  and  _64
REMARK   27  A    between atoms: _68  and  _70
REMARK   28  A    between atoms: _70  and  _71
REMARK   29  A    between atoms: _73  and  _75
REMARK   30  A    between atoms: _75  and  _76
REMARK   31  A    between atoms: _75  and  _78
REMARK   32  A    between atoms: _78  and  _79
REMARK   33  A    between atoms: _79  and  _80
REMARK   34  A    between atoms: _80  and  _81
REMARK   35  A    between atoms: _81  and  _82
REMARK   36  A    between atoms: _86  and  _88
REMARK   37  A    between atoms: _88  and  _89
REMARK   38  A    between atoms: _88  and  _91
REMARK   39  A    between atoms: _91  and  _92
REMARK   40  A    between atoms: _94  and  _96
REMARK   41  A    between atoms: _96  and  _97
REMARK   42  A    between atoms: _96  and  _99
REMARK   43  A    between atoms: _99  and  _100
REMARK   44  A    between atoms: _106  and  _108
REMARK   45  A    between atoms: _108  and  _109
REMARK   46  A    between atoms: _108  and  _111
REMARK   47  A    between atoms: _111  and  _112
REMARK   48  A    between atoms: _115  and  _117
REMARK   49  A    between atoms: _117  and  _118
REMARK   50  A    between atoms: _117  and  _120
REMARK   51  A    between atoms: _120  and  _121
REMARK   52  A    between atoms: _121  and  _122
REMARK   53  A    between atoms: _124  and  _126
REMARK   54  A    between atoms: _126  and  _127
REMARK   55  A    between atoms: _126  and  _129
REMARK   56  A    between atoms: _129  and  _130
REMARK   57  A    between atoms: _133  and  _135
REMARK   58  A    between atoms: _135  and  _136
REMARK   59  A    between atoms: _135  and  _138
REMARK   60  A    between atoms: _138  and  _139
REMARK   61  A    between atoms: _145  and  _147
REMARK   62  A    between atoms: _147  and  _148
REMARK   63  A    between atoms: _147  and  _150
REMARK   64  A    between atoms: _150  and  _151
REMARK   65  A    between atoms: _154  and  _156
REMARK   66  A    between atoms: _156  and  _157
REMARK   67  A    between atoms: _156  and  _159
REMARK   68  A    between atoms: _159  and  _160
REMARK   69  A    between atoms: _166  and  _168
REMARK   70  A    between atoms: _168  and  _169
REMARK   71  A    between atoms: _168  and  _171
REMARK   72  A    between atoms: _171  and  _172
REMARK   73  A    between atoms: _174  and  _176
REMARK   74  A    between atoms: _176  and  _177
REMARK   75  A    between atoms: _176  and  _179
REMARK   76  A    between atoms: _179  and  _180
REMARK   77  A    between atoms: _190  and  _192
REMARK   78  A    between atoms: _192  and  _193
REMARK   79  A    between atoms: _192  and  _195
REMARK   80  A    between atoms: _195  and  _196
REMARK   81  A    between atoms: _196  and  _197
REMARK   82  A    between atoms: _197  and  _198
REMARK   83  A    between atoms: _207  and  _209
REMARK   84  A    between atoms: _209  and  _210
REMARK   85  A    between atoms: _212  and  _214
REMARK   86  A    between atoms: _214  and  _215
REMARK   87  A    between atoms: _217  and  _219
REMARK   88  A    between atoms: _219  and  _220
REMARK   89  A    between atoms: _219  and  _222
REMARK   90  A    between atoms: _222  and  _223
REMARK   91  A    between atoms: _225  and  _227
REMARK   92  A    between atoms: _227  and  _228
REMARK   93  A    between atoms: _227  and  _230
REMARK   94  A    between atoms: _230  and  _231
REMARK   95  A    between atoms: _231  and  _232
REMARK   96  A    between atoms: _235  and  _237
REMARK   97  A    between atoms: _237  and  _238
REMARK   98  A    between atoms: _237  and  _240
REMARK   99  A    between atoms: _240  and  _241
REMARK  100  A    between atoms: _241  and  _242
REMARK  101  A    between atoms: _242  and  _243
REMARK  102  A    between atoms: _252  and  _254
REMARK  103  A    between atoms: _254  and  _255
REMARK  104  A    between atoms: _254  and  _257
REMARK  105  A    between atoms: _257  and  _258
REMARK  106  A    between atoms: _258  and  _259
REMARK  107  A    between atoms: _262  and  _264
REMARK  108  A    between atoms: _264  and  _265
REMARK  109  A    between atoms: _264  and  _267
REMARK  110  A    between atoms: _267  and  _268
REMARK  111  A    between atoms: _271  and  _273
REMARK  112  A    between atoms: _273  and  _274
REMARK  113  A    between atoms: _273  and  _276
REMARK  114  A    between atoms: _276  and  _277
REMARK  115  A    between atoms: _280  and  _282
REMARK  116  A    between atoms: _282  and  _283
REMARK  117  A    between atoms: _282  and  _285
REMARK  118  A    between atoms: _285  and  _286
REMARK  119  A    between atoms: _286  and  _287
REMARK  120  A    between atoms: _292  and  _294
REMARK  121  A    between atoms: _294  and  _295
REMARK  122  A    between atoms: _294  and  _297
REMARK  123  A    between atoms: _297  and  _298
REMARK  124  A    between atoms: _301  and  _303
REMARK  125  A    between atoms: _303  and  _304
REMARK  126  A    between atoms: _303  and  _306
REMARK  127  A    between atoms: _306  and  _307
REMARK  128  A    between atoms: _310  and  _312
REMARK  129  A    between atoms: _312  and  _313
REMARK  130  A    between atoms: _312  and  _315
REMARK  131  A    between atoms: _315  and  _316
REMARK  132  A    between atoms: _316  and  _317
REMARK  133  A    between atoms: _322  and  _324
REMARK  134  A    between atoms: _324  and  _325
REMARK  135  A    between atoms: _327  and  _329
REMARK  136  A    between atoms: _329  and  _330
REMARK  137  A    between atoms: _329  and  _332
REMARK  138  A    between atoms: _332  and  _333
REMARK  139  A    between atoms: _336  and  _338
REMARK  140  A    between atoms: _338  and  _339
REMARK  141  A    between atoms: _338  and  _341
REMARK  142  A    between atoms: _341  and  _342
REMARK  143  A    between atoms: _345  and  _347
REMARK  144  A    between atoms: _347  and  _348
REMARK  145  A    between atoms: _347  and  _350
REMARK  146  A    between atoms: _350  and  _351
REMARK  147  A    between atoms: _356  and  _358
REMARK  148  A    between atoms: _358  and  _359
REMARK  149  A    between atoms: _358  and  _361
REMARK  150  A    between atoms: _361  and  _362
REMARK  151  A    between atoms: _365  and  _367
REMARK  152  A    between atoms: _367  and  _368
REMARK  153  A    between atoms: _367  and  _370
REMARK  154  A    between atoms: _370  and  _371
REMARK  155  A    between atoms: _373  and  _375
REMARK  156  A    between atoms: _375  and  _376
REMARK  157  A    between atoms: _375  and  _378
REMARK  158  A    between atoms: _378  and  _379
REMARK  159  A    between atoms: _379  and  _380
REMARK  160  A    between atoms: _385  and  _387
REMARK  161  A    between atoms: _387  and  _388
REMARK  162  A    between atoms: _387  and  _390
REMARK  163  A    between atoms: _390  and  _391
REMARK  164  A    between atoms: _394  and  _396
REMARK  165  A    between atoms: _396  and  _397
REMARK  166  A    between atoms: _396  and  _399
REMARK  167  A    between atoms: _402  and  _404
REMARK  168  A    between atoms: _404  and  _405
REMARK  169  A    between atoms: _404  and  _407
REMARK  170  A    between atoms: _407  and  _408
REMARK  171  A    between atoms: _408  and  _409
REMARK  172  A    between atoms: _409  and  _410
REMARK  173  A    between atoms: _419  and  _421
REMARK  174  A    between atoms: _421  and  _422
REMARK  175  A    between atoms: _421  and  _424
REMARK  176  A    between atoms: _424  and  _425
REMARK  177  A    between atoms: _428  and  _430
REMARK  178  A    between atoms: _430  and  _431
REMARK  179  A    between atoms: _430  and  _433
REMARK  180  A    between atoms: _433  and  _434
REMARK  181  A    between atoms: _444  and  _446
REMARK  182  A    between atoms: _446  and  _447
REMARK  183  A    between atoms: _446  and  _449
REMARK  184  A    between atoms: _449  and  _450
REMARK  185  A    between atoms: _454  and  _455
REMARK  186  A    between atoms: _460  and  _462
REMARK  187  A    between atoms: _462  and  _463
REMARK  188  A    between atoms: _462  and  _465
REMARK  189  A    between atoms: _465  and  _466
REMARK  190  A    between atoms: _472  and  _473
REMARK  191  A    between atoms: _478  and  _480
REMARK  192  A    between atoms: _480  and  _481
REMARK  193  A    between atoms: _483  and  _485
REMARK  194  A    between atoms: _485  and  _486
REMARK  195  A    between atoms: _485  and  _488
REMARK  196  A    between atoms: _488  and  _489
REMARK  197  A    between atoms: _492  and  _494
REMARK  198  A    between atoms: _494  and  _495
REMARK  199  A    between atoms: _494  and  _497
REMARK  200  A    between atoms: _497  and  _498
REMARK  201  A    between atoms: _498  and  _499
REMARK  202  A    between atoms: _499  and  _500
REMARK  203  A    between atoms: _500  and  _501
REMARK  204  A    between atoms: _505  and  _507
REMARK  205  A    between atoms: _507  and  _508
REMARK  206  A    between atoms: _507  and  _510
REMARK  207  A    between atoms: _513  and  _515
REMARK  208  A    between atoms: _515  and  _516
REMARK  209  A    between atoms: _519  and  _521
REMARK  210  A    between atoms: _521  and  _522
REMARK  211  A    between atoms: _521  and  _524
REMARK  212  A    between atoms: _524  and  _525
REMARK  213  A    between atoms: _528  and  _530
REMARK  214  A    between atoms: _530  and  _531
REMARK  215  A    between atoms: _530  and  _533
REMARK  216  A    between atoms: _533  and  _534
REMARK  217  A    between atoms: _540  and  _541
REMARK  218  A    between atoms: _546  and  _548
REMARK  219  A    between atoms: _548  and  _549
REMARK  220  A    between atoms: _548  and  _551
REMARK  221  A    between atoms: _551  and  _552
REMARK  222  A    between atoms: _558  and  _560
REMARK  223  A    between atoms: _560  and  _561
REMARK  224  A    between atoms: _560  and  _563
REMARK  225  A    between atoms: _563  and  _564
REMARK  226  A    between atoms: _567  and  _569
REMARK  227  A    between atoms: _569  and  _570
REMARK  228  A    between atoms: _572  and  _574
REMARK  229  A    between atoms: _574  and  _575
REMARK  230  A    between atoms: _574  and  _577
REMARK  231  A    between atoms: _577  and  _578
REMARK  232  A    between atoms: _581  and  _583
REMARK  233  A    between atoms: _583  and  _584
REMARK  234  A    between atoms: _583  and  _586
REMARK  235  A    between atoms: _586  and  _587
REMARK  236  A    between atoms: _593  and  _595
REMARK  237  A    between atoms: _595  and  _596
REMARK  238  A    between atoms: _595  and  _598
REMARK  239  A    between atoms: _598  and  _599
REMARK  240  A    between atoms: _599  and  _600
REMARK  241  A    between atoms: _605  and  _607
REMARK  242  A    between atoms: _607  and  _608
REMARK  243  A    between atoms: _607  and  _610
REMARK  244  A    between atoms: _610  and  _611
REMARK  245  A    between atoms: _614  and  _616
REMARK  246  A    between atoms: _616  and  _617
REMARK  247  A    between atoms: _616  and  _619
REMARK  248  A    between atoms: _619  and  _620
REMARK  249  A    between atoms: _622  and  _624
REMARK  250  A    between atoms: _624  and  _625
REMARK  251  A    between atoms: _624  and  _627
REMARK  252  A    between atoms: _627  and  _628
REMARK  253  A    between atoms: _634  and  _636
REMARK  254  A    between atoms: _636  and  _637
REMARK  255  A    between atoms: _636  and  _639
REMARK  256  A    between atoms: _639  and  _640
REMARK  257  A    between atoms: _645  and  _646
REMARK  258  A    between atoms: _648  and  _650
REMARK  259  A    between atoms: _650  and  _651
REMARK  260  A    between atoms: _650  and  _653
REMARK  261  A    between atoms: _653  and  _654
REMARK                            x       y       z     vdW  Elec       q    Type
REMARK                         _______ _______ _______ _____ _____    ______ ____
ROOT
ATOM      1  O   HOH     1      16.155  -3.062 -55.345  0.00  0.00    +0.000 OA
ENDROOT
TORSDOF 0
REMARK  Name = ../refined-set-2016/4idn/4idn_pocket.pdb
REMARK  261 active torsions:
REMARK  status: ('A' for Active; 'I' for Inactive)
REMARK    1  A    between atoms: _1  and  _3
REMARK    2  A    between atoms: _3  and  _4
REMARK    3  A    between atoms: _3  and  _6
REMARK    4  A    between atoms: _9  and  _11
REMARK    5  A    between atoms: _11  and  _12
REMARK    6  A    between atoms: _15  and  _17
REMARK    7  A    between atoms: _17  and  _18
REMARK    8  A    between atoms: _20  and  _22
REMARK    9  A    between atoms: _22  and  _23
REMARK   10  A    between atoms: _26  and  _28
REMARK   11  A    between atoms: _28  and  _29
REMARK   12  A    between atoms: _28  and  _31
REMARK   13  A    between atoms: _31  and  _32
REMARK   14  A    between atoms: _38  and  _40
REMARK   15  A    between atoms: _40  and  _41
REMARK   16  A    between atoms: _40  and  _43
REMARK   17  A    between atoms: _43  and  _44
REMARK   18  A    between atoms: _44  and  _45
REMARK   19  A    between atoms: _45  and  _46
REMARK   20  A    between atoms: _55  and  _57
REMARK   21  A    between atoms: _57  and  _58
REMARK   22  A    between atoms: _57  and  _60
REMARK   23  A    between atoms: _60  and  _61
REMARK   24  A    between atoms: _61  and  _62
REMARK   25  A    between atoms: _62  and  _63
REMARK   26  A    between atoms: _63  and  _64
REMARK   27  A    between atoms: _68  and  _70
REMARK   28  A    between atoms: _70  and  _71
REMARK   29  A    between atoms: _73  and  _75
REMARK   30  A    between atoms: _75  and  _76
REMARK   31  A    between atoms: _75  and  _78
REMARK   32  A    between atoms: _78  and  _79
REMARK   33  A    between atoms: _79  and  _80
REMARK   34  A    between atoms: _80  and  _81
REMARK   35  A    between atoms: _81  and  _82
REMARK   36  A    between atoms: _86  and  _88
REMARK   37  A    between atoms: _88  and  _89
REMARK   38  A    between atoms: _88  and  _91
REMARK   39  A    between atoms: _91  and  _92
REMARK   40  A    between atoms: _94  and  _96
REMARK   41  A    between atoms: _96  and  _97
REMARK   42  A    between atoms: _96  and  _99
REMARK   43  A    between atoms: _99  and  _100
REMARK   44  A    between atoms: _106  and  _108
REMARK   45  A    between atoms: _108  and  _109
REMARK   46  A    between atoms: _108  and  _111
REMARK   47  A    between atoms: _111  and  _112
REMARK   48  A    between atoms: _115  and  _117
REMARK   49  A    between atoms: _117  and  _118
REMARK   50  A    between atoms: _117  and  _120
REMARK   51  A    between atoms: _120  and  _121
REMARK   52  A    between atoms: _121  and  _122
REMARK   53  A    between atoms: _124  and  _126
REMARK   54  A    between atoms: _126  and  _127
REMARK   55  A    between atoms: _126  and  _129
REMARK   56  A    between atoms: _129  and  _130
REMARK   57  A    between atoms: _133  and  _135
REMARK   58  A    between atoms: _135  and  _136
REMARK   59  A    between atoms: _135  and  _138
REMARK   60  A    between atoms: _138  and  _139
REMARK   61  A    between atoms: _145  and  _147
REMARK   62  A    between atoms: _147  and  _148
REMARK   63  A    between atoms: _147  and  _150
REMARK   64  A    between atoms: _150  and  _151
REMARK   65  A    between atoms: _154  and  _156
REMARK   66  A    between atoms: _156  and  _157
REMARK   67  A    between atoms: _156  and  _159
REMARK   68  A    between atoms: _159  and  _160
REMARK   69  A    between atoms: _166  and  _168
REMARK   70  A    between atoms: _168  and  _169
REMARK   71  A    between atoms: _168  and  _171
REMARK   72  A    between atoms: _171  and  _172
REMARK   73  A    between atoms: _174  and  _176
REMARK   74  A    between atoms: _176  and  _177
REMARK   75  A    between atoms: _176  and  _179
REMARK   76  A    between atoms: _179  and  _180
REMARK   77  A    between atoms: _190  and  _192
REMARK   78  A    between atoms: _192  and  _193
REMARK   79  A    between atoms: _192  and  _195
REMARK   80  A    between atoms: _195  and  _196
REMARK   81  A    between atoms: _196  and  _197
REMARK   82  A    between atoms: _197  and  _198
REMARK   83  A    between atoms: _207  and  _209
REMARK   84  A    between atoms: _209  and  _210
REMARK   85  A    between atoms: _212  and  _214
REMARK   86  A    between atoms: _214  and  _215
REMARK   87  A    between atoms: _217  and  _219
REMARK   88  A    between atoms: _219  and  _220
REMARK   89  A    between atoms: _219  and  _222
REMARK   90  A    between atoms: _222  and  _223
REMARK   91  A    between atoms: _225  and  _227
REMARK   92  A    between atoms: _227  and  _228
REMARK   93  A    between atoms: _227  and  _230
REMARK   94  A    between atoms: _230  and  _231
REMARK   95  A    between atoms: _231  and  _232
REMARK   96  A    between atoms: _235  and  _237
REMARK   97  A    between atoms: _237  and  _238
REMARK   98  A    between atoms: _237  and  _240
REMARK   99  A    between atoms: _240  and  _241
REMARK  100  A    between atoms: _241  and  _242
REMARK  101  A    between atoms: _242  and  _243
REMARK  102  A    between atoms: _252  and  _254
REMARK  103  A    between atoms: _254  and  _255
REMARK  104  A    between atoms: _254  and  _257
REMARK  105  A    between atoms: _257  and  _258
REMARK  106  A    between atoms: _258  and  _259
REMARK  107  A    between atoms: _262  and  _264
REMARK  108  A    between atoms: _264  and  _265
REMARK  109  A    between atoms: _264  and  _267
REMARK  110  A    between atoms: _267  and  _268
REMARK  111  A    between atoms: _271  and  _273
REMARK  112  A    between atoms: _273  and  _274
REMARK  113  A    between atoms: _273  and  _276
REMARK  114  A    between atoms: _276  and  _277
REMARK  115  A    between atoms: _280  and  _282
REMARK  116  A    between atoms: _282  and  _283
REMARK  117  A    between atoms: _282  and  _285
REMARK  118  A    between atoms: _285  and  _286
REMARK  119  A    between atoms: _286  and  _287
REMARK  120  A    between atoms: _292  and  _294
REMARK  121  A    between atoms: _294  and  _295
REMARK  122  A    between atoms: _294  and  _297
REMARK  123  A    between atoms: _297  and  _298
REMARK  124  A    between atoms: _301  and  _303
REMARK  125  A    between atoms: _303  and  _304
REMARK  126  A    between atoms: _303  and  _306
REMARK  127  A    between atoms: _306  and  _307
REMARK  128  A    between atoms: _310  and  _312
REMARK  129  A    between atoms: _312  and  _313
REMARK  130  A    between atoms: _312  and  _315
REMARK  131  A    between atoms: _315  and  _316
REMARK  132  A    between atoms: _316  and  _317
REMARK  133  A    between atoms: _322  and  _324
REMARK  134  A    between atoms: _324  and  _325
REMARK  135  A    between atoms: _327  and  _329
REMARK  136  A    between atoms: _329  and  _330
REMARK  137  A    between atoms: _329  and  _332
REMARK  138  A    between atoms: _332  and  _333
REMARK  139  A    between atoms: _336  and  _338
REMARK  140  A    between atoms: _338  and  _339
REMARK  141  A    between atoms: _338  and  _341
REMARK  142  A    between atoms: _341  and  _342
REMARK  143  A    between atoms: _345  and  _347
REMARK  144  A    between atoms: _347  and  _348
REMARK  145  A    between atoms: _347  and  _350
REMARK  146  A    between atoms: _350  and  _351
REMARK  147  A    between atoms: _356  and  _358
REMARK  148  A    between atoms: _358  and  _359
REMARK  149  A    between atoms: _358  and  _361
REMARK  150  A    between atoms: _361  and  _362
REMARK  151  A    between atoms: _365  and  _367
REMARK  152  A    between atoms: _367  and  _368
REMARK  153  A    between atoms: _367  and  _370
REMARK  154  A    between atoms: _370  and  _371
REMARK  155  A    between atoms: _373  and  _375
REMARK  156  A    between atoms: _375  and  _376
REMARK  157  A    between atoms: _375  and  _378
REMARK  158  A    between atoms: _378  and  _379
REMARK  159  A    between atoms: _379  and  _380
REMARK  160  A    between atoms: _385  and  _387
REMARK  161  A    between atoms: _387  and  _388
REMARK  162  A    between atoms: _387  and  _390
REMARK  163  A    between atoms: _390  and  _391
REMARK  164  A    between atoms: _394  and  _396
REMARK  165  A    between atoms: _396  and  _397
REMARK  166  A    between atoms: _396  and  _399
REMARK  167  A    between atoms: _402  and  _404
REMARK  168  A    between atoms: _404  and  _405
REMARK  169  A    between atoms: _404  and  _407
REMARK  170  A    between atoms: _407  and  _408
REMARK  171  A    between atoms: _408  and  _409
REMARK  172  A    between atoms: _409  and  _410
REMARK  173  A    between atoms: _419  and  _421
REMARK  174  A    between atoms: _421  and  _422
REMARK  175  A    between atoms: _421  and  _424
REMARK  176  A    between atoms: _424  and  _425
REMARK  177  A    between atoms: _428  and  _430
REMARK  178  A    between atoms: _430  and  _431
REMARK  179  A    between atoms: _430  and  _433
REMARK  180  A    between atoms: _433  and  _434
REMARK  181  A    between atoms: _444  and  _446
REMARK  182  A    between atoms: _446  and  _447
REMARK  183  A    between atoms: _446  and  _449
REMARK  184  A    between atoms: _449  and  _450
REMARK  185  A    between atoms: _454  and  _455
REMARK  186  A    between atoms: _460  and  _462
REMARK  187  A    between atoms: _462  and  _463
REMARK  188  A    between atoms: _462  and  _465
REMARK  189  A    between atoms: _465  and  _466
REMARK  190  A    between atoms: _472  and  _473
REMARK  191  A    between atoms: _478  and  _480
REMARK  192  A    between atoms: _480  and  _481
REMARK  193  A    between atoms: _483  and  _485
REMARK  194  A    between atoms: _485  and  _486
REMARK  195  A    between atoms: _485  and  _488
REMARK  196  A    between atoms: _488  and  _489
REMARK  197  A    between atoms: _492  and  _494
REMARK  198  A    between atoms: _494  and  _495
REMARK  199  A    between atoms: _494  and  _497
REMARK  200  A    between atoms: _497  and  _498
REMARK  201  A    between atoms: _498  and  _499
REMARK  202  A    between atoms: _499  and  _500
REMARK  203  A    between atoms: _500  and  _501
REMARK  204  A    between atoms: _505  and  _507
REMARK  205  A    between atoms: _507  and  _508
REMARK  206  A    between atoms: _507  and  _510
REMARK  207  A    between atoms: _513  and  _515
REMARK  208  A    between atoms: _515  and  _516
REMARK  209  A    between atoms: _519  and  _521
REMARK  210  A    between atoms: _521  and  _522
REMARK  211  A    between atoms: _521  and  _524
REMARK  212  A    between atoms: _524  and  _525
REMARK  213  A    between atoms: _528  and  _530
REMARK  214  A    between atoms: _530  and  _531
REMARK  215  A    between atoms: _530  and  _533
REMARK  216  A    between atoms: _533  and  _534
REMARK  217  A    between atoms: _540  and  _541
REMARK  218  A    between atoms: _546  and  _548
REMARK  219  A    between atoms: _548  and  _549
REMARK  220  A    between atoms: _548  and  _551
REMARK  221  A    between atoms: _551  and  _552
REMARK  222  A    between atoms: _558  and  _560
REMARK  223  A    between atoms: _560  and  _561
REMARK  224  A    between atoms: _560  and  _563
REMARK  225  A    between atoms: _563  and  _564
REMARK  226  A    between atoms: _567  and  _569
REMARK  227  A    between atoms: _569  and  _570
REMARK  228  A    between atoms: _572  and  _574
REMARK  229  A    between atoms: _574  and  _575
REMARK  230  A    between atoms: _574  and  _577
REMARK  231  A    between atoms: _577  and  _578
REMARK  232  A    between atoms: _581  and  _583
REMARK  233  A    between atoms: _583  and  _584
REMARK  234  A    between atoms: _583  and  _586
REMARK  235  A    between atoms: _586  and  _587
REMARK  236  A    between atoms: _593  and  _595
REMARK  237  A    between atoms: _595  and  _596
REMARK  238  A    between atoms: _595  and  _598
REMARK  239  A    between atoms: _598  and  _599
REMARK  240  A    between atoms: _599  and  _600
REMARK  241  A    between atoms: _605  and  _607
REMARK  242  A    between atoms: _607  and  _608
REMARK  243  A    between atoms: _607  and  _610
REMARK  244  A    between atoms: _610  and  _611
REMARK  245  A    between atoms: _614  and  _616
REMARK  246  A    between atoms: _616  and  _617
REMARK  247  A    between atoms: _616  and  _619
REMARK  248  A    between atoms: _619  and  _620
REMARK  249  A    between atoms: _622  and  _624
REMARK  250  A    between atoms: _624  and  _625
REMARK  251  A    between atoms: _624  and  _627
REMARK  252  A    between atoms: _627  and  _628
REMARK  253  A    between atoms: _634  and  _636
REMARK  254  A    between atoms: _636  and  _637
REMARK  255  A    between atoms: _636  and  _639
REMARK  256  A    between atoms: _639  and  _640
REMARK  257  A    between atoms: _645  and  _646
REMARK  258  A    between atoms: _648  and  _650
REMARK  259  A    between atoms: _650  and  _651
REMARK  260  A    between atoms: _650  and  _653
REMARK  261  A    between atoms: _653  and  _654
REMARK                            x       y       z     vdW  Elec       q    Type
REMARK                         _______ _______ _______ _____ _____    ______ ____
ROOT
ATOM      1  O   HOH     1      23.759   4.754 -58.904  0.00  0.00    +0.000 OA
ENDROOT
TORSDOF 0
REMARK  Name = ../refined-set-2016/4idn/4idn_pocket.pdb
REMARK  261 active torsions:
REMARK  status: ('A' for Active; 'I' for Inactive)
REMARK    1  A    between atoms: _1  and  _3
REMARK    2  A    between atoms: _3  and  _4
REMARK    3  A    between atoms: _3  and  _6
REMARK    4  A    between atoms: _9  and  _11
REMARK    5  A    between atoms: _11  and  _12
REMARK    6  A    between atoms: _15  and  _17
REMARK    7  A    between atoms: _17  and  _18
REMARK    8  A    between atoms: _20  and  _22
REMARK    9  A    between atoms: _22  and  _23
REMARK   10  A    between atoms: _26  and  _28
REMARK   11  A    between atoms: _28  and  _29
REMARK   12  A    between atoms: _28  and  _31
REMARK   13  A    between atoms: _31  and  _32
REMARK   14  A    between atoms: _38  and  _40
REMARK   15  A    between atoms: _40  and  _41
REMARK   16  A    between atoms: _40  and  _43
REMARK   17  A    between atoms: _43  and  _44
REMARK   18  A    between atoms: _44  and  _45
REMARK   19  A    between atoms: _45  and  _46
REMARK   20  A    between atoms: _55  and  _57
REMARK   21  A    between atoms: _57  and  _58
REMARK   22  A    between atoms: _57  and  _60
REMARK   23  A    between atoms: _60  and  _61
REMARK   24  A    between atoms: _61  and  _62
REMARK   25  A    between atoms: _62  and  _63
REMARK   26  A    between atoms: _63  and  _64
REMARK   27  A    between atoms: _68  and  _70
REMARK   28  A    between atoms: _70  and  _71
REMARK   29  A    between atoms: _73  and  _75
REMARK   30  A    between atoms: _75  and  _76
REMARK   31  A    between atoms: _75  and  _78
REMARK   32  A    between atoms: _78  and  _79
REMARK   33  A    between atoms: _79  and  _80
REMARK   34  A    between atoms: _80  and  _81
REMARK   35  A    between atoms: _81  and  _82
REMARK   36  A    between atoms: _86  and  _88
REMARK   37  A    between atoms: _88  and  _89
REMARK   38  A    between atoms: _88  and  _91
REMARK   39  A    between atoms: _91  and  _92
REMARK   40  A    between atoms: _94  and  _96
REMARK   41  A    between atoms: _96  and  _97
REMARK   42  A    between atoms: _96  and  _99
REMARK   43  A    between atoms: _99  and  _100
REMARK   44  A    between atoms: _106  and  _108
REMARK   45  A    between atoms: _108  and  _109
REMARK   46  A    between atoms: _108  and  _111
REMARK   47  A    between atoms: _111  and  _112
REMARK   48  A    between atoms: _115  and  _117
REMARK   49  A    between atoms: _117  and  _118
REMARK   50  A    between atoms: _117  and  _120
REMARK   51  A    between atoms: _120  and  _121
REMARK   52  A    between atoms: _121  and  _122
REMARK   53  A    between atoms: _124  and  _126
REMARK   54  A    between atoms: _126  and  _127
REMARK   55  A    between atoms: _126  and  _129
REMARK   56  A    between atoms: _129  and  _130
REMARK   57  A    between atoms: _133  and  _135
REMARK   58  A    between atoms: _135  and  _136
REMARK   59  A    between atoms: _135  and  _138
REMARK   60  A    between atoms: _138  and  _139
REMARK   61  A    between atoms: _145  and  _147
REMARK   62  A    between atoms: _147  and  _148
REMARK   63  A    between atoms: _147  and  _150
REMARK   64  A    between atoms: _150  and  _151
REMARK   65  A    between atoms: _154  and  _156
REMARK   66  A    between atoms: _156  and  _157
REMARK   67  A    between atoms: _156  and  _159
REMARK   68  A    between atoms: _159  and  _160
REMARK   69  A    between atoms: _166  and  _168
REMARK   70  A    between atoms: _168  and  _169
REMARK   71  A    between atoms: _168  and  _171
REMARK   72  A    between atoms: _171  and  _172
REMARK   73  A    between atoms: _174  and  _176
REMARK   74  A    between atoms: _176  and  _177
REMARK   75  A    between atoms: _176  and  _179
REMARK   76  A    between atoms: _179  and  _180
REMARK   77  A    between atoms: _190  and  _192
REMARK   78  A    between atoms: _192  and  _193
REMARK   79  A    between atoms: _192  and  _195
REMARK   80  A    between atoms: _195  and  _196
REMARK   81  A    between atoms: _196  and  _197
REMARK   82  A    between atoms: _197  and  _198
REMARK   83  A    between atoms: _207  and  _209
REMARK   84  A    between atoms: _209  and  _210
REMARK   85  A    between atoms: _212  and  _214
REMARK   86  A    between atoms: _214  and  _215
REMARK   87  A    between atoms: _217  and  _219
REMARK   88  A    between atoms: _219  and  _220
REMARK   89  A    between atoms: _219  and  _222
REMARK   90  A    between atoms: _222  and  _223
REMARK   91  A    between atoms: _225  and  _227
REMARK   92  A    between atoms: _227  and  _228
REMARK   93  A    between atoms: _227  and  _230
REMARK   94  A    between atoms: _230  and  _231
REMARK   95  A    between atoms: _231  and  _232
REMARK   96  A    between atoms: _235  and  _237
REMARK   97  A    between atoms: _237  and  _238
REMARK   98  A    between atoms: _237  and  _240
REMARK   99  A    between atoms: _240  and  _241
REMARK  100  A    between atoms: _241  and  _242
REMARK  101  A    between atoms: _242  and  _243
REMARK  102  A    between atoms: _252  and  _254
REMARK  103  A    between atoms: _254  and  _255
REMARK  104  A    between atoms: _254  and  _257
REMARK  105  A    between atoms: _257  and  _258
REMARK  106  A    between atoms: _258  and  _259
REMARK  107  A    between atoms: _262  and  _264
REMARK  108  A    between atoms: _264  and  _265
REMARK  109  A    between atoms: _264  and  _267
REMARK  110  A    between atoms: _267  and  _268
REMARK  111  A    between atoms: _271  and  _273
REMARK  112  A    between atoms: _273  and  _274
REMARK  113  A    between atoms: _273  and  _276
REMARK  114  A    between atoms: _276  and  _277
REMARK  115  A    between atoms: _280  and  _282
REMARK  116  A    between atoms: _282  and  _283
REMARK  117  A    between atoms: _282  and  _285
REMARK  118  A    between atoms: _285  and  _286
REMARK  119  A    between atoms: _286  and  _287
REMARK  120  A    between atoms: _292  and  _294
REMARK  121  A    between atoms: _294  and  _295
REMARK  122  A    between atoms: _294  and  _297
REMARK  123  A    between atoms: _297  and  _298
REMARK  124  A    between atoms: _301  and  _303
REMARK  125  A    between atoms: _303  and  _304
REMARK  126  A    between atoms: _303  and  _306
REMARK  127  A    between atoms: _306  and  _307
REMARK  128  A    between atoms: _310  and  _312
REMARK  129  A    between atoms: _312  and  _313
REMARK  130  A    between atoms: _312  and  _315
REMARK  131  A    between atoms: _315  and  _316
REMARK  132  A    between atoms: _316  and  _317
REMARK  133  A    between atoms: _322  and  _324
REMARK  134  A    between atoms: _324  and  _325
REMARK  135  A    between atoms: _327  and  _329
REMARK  136  A    between atoms: _329  and  _330
REMARK  137  A    between atoms: _329  and  _332
REMARK  138  A    between atoms: _332  and  _333
REMARK  139  A    between atoms: _336  and  _338
REMARK  140  A    between atoms: _338  and  _339
REMARK  141  A    between atoms: _338  and  _341
REMARK  142  A    between atoms: _341  and  _342
REMARK  143  A    between atoms: _345  and  _347
REMARK  144  A    between atoms: _347  and  _348
REMARK  145  A    between atoms: _347  and  _350
REMARK  146  A    between atoms: _350  and  _351
REMARK  147  A    between atoms: _356  and  _358
REMARK  148  A    between atoms: _358  and  _359
REMARK  149  A    between atoms: _358  and  _361
REMARK  150  A    between atoms: _361  and  _362
REMARK  151  A    between atoms: _365  and  _367
REMARK  152  A    between atoms: _367  and  _368
REMARK  153  A    between atoms: _367  and  _370
REMARK  154  A    between atoms: _370  and  _371
REMARK  155  A    between atoms: _373  and  _375
REMARK  156  A    between atoms: _375  and  _376
REMARK  157  A    between atoms: _375  and  _378
REMARK  158  A    between atoms: _378  and  _379
REMARK  159  A    between atoms: _379  and  _380
REMARK  160  A    between atoms: _385  and  _387
REMARK  161  A    between atoms: _387  and  _388
REMARK  162  A    between atoms: _387  and  _390
REMARK  163  A    between atoms: _390  and  _391
REMARK  164  A    between atoms: _394  and  _396
REMARK  165  A    between atoms: _396  and  _397
REMARK  166  A    between atoms: _396  and  _399
REMARK  167  A    between atoms: _402  and  _404
REMARK  168  A    between atoms: _404  and  _405
REMARK  169  A    between atoms: _404  and  _407
REMARK  170  A    between atoms: _407  and  _408
REMARK  171  A    between atoms: _408  and  _409
REMARK  172  A    between atoms: _409  and  _410
REMARK  173  A    between atoms: _419  and  _421
REMARK  174  A    between atoms: _421  and  _422
REMARK  175  A    between atoms: _421  and  _424
REMARK  176  A    between atoms: _424  and  _425
REMARK  177  A    between atoms: _428  and  _430
REMARK  178  A    between atoms: _430  and  _431
REMARK  179  A    between atoms: _430  and  _433
REMARK  180  A    between atoms: _433  and  _434
REMARK  181  A    between atoms: _444  and  _446
REMARK  182  A    between atoms: _446  and  _447
REMARK  183  A    between atoms: _446  and  _449
REMARK  184  A    between atoms: _449  and  _450
REMARK  185  A    between atoms: _454  and  _455
REMARK  186  A    between atoms: _460  and  _462
REMARK  187  A    between atoms: _462  and  _463
REMARK  188  A    between atoms: _462  and  _465
REMARK  189  A    between atoms: _465  and  _466
REMARK  190  A    between atoms: _472  and  _473
REMARK  191  A    between atoms: _478  and  _480
REMARK  192  A    between atoms: _480  and  _481
REMARK  193  A    between atoms: _483  and  _485
REMARK  194  A    between atoms: _485  and  _486
REMARK  195  A    between atoms: _485  and  _488
REMARK  196  A    between atoms: _488  and  _489
REMARK  197  A    between atoms: _492  and  _494
REMARK  198  A    between atoms: _494  and  _495
REMARK  199  A    between atoms: _494  and  _497
REMARK  200  A    between atoms: _497  and  _498
REMARK  201  A    between atoms: _498  and  _499
REMARK  202  A    between atoms: _499  and  _500
REMARK  203  A    between atoms: _500  and  _501
REMARK  204  A    between atoms: _505  and  _507
REMARK  205  A    between atoms: _507  and  _508
REMARK  206  A    between atoms: _507  and  _510
REMARK  207  A    between atoms: _513  and  _515
REMARK  208  A    between atoms: _515  and  _516
REMARK  209  A    between atoms: _519  and  _521
REMARK  210  A    between atoms: _521  and  _522
REMARK  211  A    between atoms: _521  and  _524
REMARK  212  A    between atoms: _524  and  _525
REMARK  213  A    between atoms: _528  and  _530
REMARK  214  A    between atoms: _530  and  _531
REMARK  215  A    between atoms: _530  and  _533
REMARK  216  A    between atoms: _533  and  _534
REMARK  217  A    between atoms: _540  and  _541
REMARK  218  A    between atoms: _546  and  _548
REMARK  219  A    between atoms: _548  and  _549
REMARK  220  A    between atoms: _548  and  _551
REMARK  221  A    between atoms: _551  and  _552
REMARK  222  A    between atoms: _558  and  _560
REMARK  223  A    between atoms: _560  and  _561
REMARK  224  A    between atoms: _560  and  _563
REMARK  225  A    between atoms: _563  and  _564
REMARK  226  A    between atoms: _567  and  _569
REMARK  227  A    between atoms: _569  and  _570
REMARK  228  A    between atoms: _572  and  _574
REMARK  229  A    between atoms: _574  and  _575
REMARK  230  A    between atoms: _574  and  _577
REMARK  231  A    between atoms: _577  and  _578
REMARK  232  A    between atoms: _581  and  _583
REMARK  233  A    between atoms: _583  and  _584
REMARK  234  A    between atoms: _583  and  _586
REMARK  235  A    between atoms: _586  and  _587
REMARK  236  A    between atoms: _593  and  _595
REMARK  237  A    between atoms: _595  and  _596
REMARK  238  A    between atoms: _595  and  _598
REMARK  239  A    between atoms: _598  and  _599
REMARK  240  A    between atoms: _599  and  _600
REMARK  241  A    between atoms: _605  and  _607
REMARK  242  A    between atoms: _607  and  _608
REMARK  243  A    between atoms: _607  and  _610
REMARK  244  A    between atoms: _610  and  _611
REMARK  245  A    between atoms: _614  and  _616
REMARK  246  A    between atoms: _616  and  _617
REMARK  247  A    between atoms: _616  and  _619
REMARK  248  A    between atoms: _619  and  _620
REMARK  249  A    between atoms: _622  and  _624
REMARK  250  A    between atoms: _624  and  _625
REMARK  251  A    between atoms: _624  and  _627
REMARK  252  A    between atoms: _627  and  _628
REMARK  253  A    between atoms: _634  and  _636
REMARK  254  A    between atoms: _636  and  _637
REMARK  255  A    between atoms: _636  and  _639
REMARK  256  A    between atoms: _639  and  _640
REMARK  257  A    between atoms: _645  and  _646
REMARK  258  A    between atoms: _648  and  _650
REMARK  259  A    between atoms: _650  and  _651
REMARK  260  A    between atoms: _650  and  _653
REMARK  261  A    between atoms: _653  and  _654
REMARK                            x       y       z     vdW  Elec       q    Type
REMARK                         _______ _______ _______ _____ _____    ______ ____
ROOT
ATOM      1  O   HOH     1      28.214   3.513 -47.008  0.00  0.00    +0.000 OA
ENDROOT
TORSDOF 0
REMARK  Name = ../refined-set-2016/4idn/4idn_pocket.pdb
REMARK  261 active torsions:
REMARK  status: ('A' for Active; 'I' for Inactive)
REMARK    1  A    between atoms: _1  and  _3
REMARK    2  A    between atoms: _3  and  _4
REMARK    3  A    between atoms: _3  and  _6
REMARK    4  A    between atoms: _9  and  _11
REMARK    5  A    between atoms: _11  and  _12
REMARK    6  A    between atoms: _15  and  _17
REMARK    7  A    between atoms: _17  and  _18
REMARK    8  A    between atoms: _20  and  _22
REMARK    9  A    between atoms: _22  and  _23
REMARK   10  A    between atoms: _26  and  _28
REMARK   11  A    between atoms: _28  and  _29
REMARK   12  A    between atoms: _28  and  _31
REMARK   13  A    between atoms: _31  and  _32
REMARK   14  A    between atoms: _38  and  _40
REMARK   15  A    between atoms: _40  and  _41
REMARK   16  A    between atoms: _40  and  _43
REMARK   17  A    between atoms: _43  and  _44
REMARK   18  A    between atoms: _44  and  _45
REMARK   19  A    between atoms: _45  and  _46
REMARK   20  A    between atoms: _55  and  _57
REMARK   21  A    between atoms: _57  and  _58
REMARK   22  A    between atoms: _57  and  _60
REMARK   23  A    between atoms: _60  and  _61
REMARK   24  A    between atoms: _61  and  _62
REMARK   25  A    between atoms: _62  and  _63
REMARK   26  A    between atoms: _63  and  _64
REMARK   27  A    between atoms: _68  and  _70
REMARK   28  A    between atoms: _70  and  _71
REMARK   29  A    between atoms: _73  and  _75
REMARK   30  A    between atoms: _75  and  _76
REMARK   31  A    between atoms: _75  and  _78
REMARK   32  A    between atoms: _78  and  _79
REMARK   33  A    between atoms: _79  and  _80
REMARK   34  A    between atoms: _80  and  _81
REMARK   35  A    between atoms: _81  and  _82
REMARK   36  A    between atoms: _86  and  _88
REMARK   37  A    between atoms: _88  and  _89
REMARK   38  A    between atoms: _88  and  _91
REMARK   39  A    between atoms: _91  and  _92
REMARK   40  A    between atoms: _94  and  _96
REMARK   41  A    between atoms: _96  and  _97
REMARK   42  A    between atoms: _96  and  _99
REMARK   43  A    between atoms: _99  and  _100
REMARK   44  A    between atoms: _106  and  _108
REMARK   45  A    between atoms: _108  and  _109
REMARK   46  A    between atoms: _108  and  _111
REMARK   47  A    between atoms: _111  and  _112
REMARK   48  A    between atoms: _115  and  _117
REMARK   49  A    between atoms: _117  and  _118
REMARK   50  A    between atoms: _117  and  _120
REMARK   51  A    between atoms: _120  and  _121
REMARK   52  A    between atoms: _121  and  _122
REMARK   53  A    between atoms: _124  and  _126
REMARK   54  A    between atoms: _126  and  _127
REMARK   55  A    between atoms: _126  and  _129
REMARK   56  A    between atoms: _129  and  _130
REMARK   57  A    between atoms: _133  and  _135
REMARK   58  A    between atoms: _135  and  _136
REMARK   59  A    between atoms: _135  and  _138
REMARK   60  A    between atoms: _138  and  _139
REMARK   61  A    between atoms: _145  and  _147
REMARK   62  A    between atoms: _147  and  _148
REMARK   63  A    between atoms: _147  and  _150
REMARK   64  A    between atoms: _150  and  _151
REMARK   65  A    between atoms: _154  and  _156
REMARK   66  A    between atoms: _156  and  _157
REMARK   67  A    between atoms: _156  and  _159
REMARK   68  A    between atoms: _159  and  _160
REMARK   69  A    between atoms: _166  and  _168
REMARK   70  A    between atoms: _168  and  _169
REMARK   71  A    between atoms: _168  and  _171
REMARK   72  A    between atoms: _171  and  _172
REMARK   73  A    between atoms: _174  and  _176
REMARK   74  A    between atoms: _176  and  _177
REMARK   75  A    between atoms: _176  and  _179
REMARK   76  A    between atoms: _179  and  _180
REMARK   77  A    between atoms: _190  and  _192
REMARK   78  A    between atoms: _192  and  _193
REMARK   79  A    between atoms: _192  and  _195
REMARK   80  A    between atoms: _195  and  _196
REMARK   81  A    between atoms: _196  and  _197
REMARK   82  A    between atoms: _197  and  _198
REMARK   83  A    between atoms: _207  and  _209
REMARK   84  A    between atoms: _209  and  _210
REMARK   85  A    between atoms: _212  and  _214
REMARK   86  A    between atoms: _214  and  _215
REMARK   87  A    between atoms: _217  and  _219
REMARK   88  A    between atoms: _219  and  _220
REMARK   89  A    between atoms: _219  and  _222
REMARK   90  A    between atoms: _222  and  _223
REMARK   91  A    between atoms: _225  and  _227
REMARK   92  A    between atoms: _227  and  _228
REMARK   93  A    between atoms: _227  and  _230
REMARK   94  A    between atoms: _230  and  _231
REMARK   95  A    between atoms: _231  and  _232
REMARK   96  A    between atoms: _235  and  _237
REMARK   97  A    between atoms: _237  and  _238
REMARK   98  A    between atoms: _237  and  _240
REMARK   99  A    between atoms: _240  and  _241
REMARK  100  A    between atoms: _241  and  _242
REMARK  101  A    between atoms: _242  and  _243
REMARK  102  A    between atoms: _252  and  _254
REMARK  103  A    between atoms: _254  and  _255
REMARK  104  A    between atoms: _254  and  _257
REMARK  105  A    between atoms: _257  and  _258
REMARK  106  A    between atoms: _258  and  _259
REMARK  107  A    between atoms: _262  and  _264
REMARK  108  A    between atoms: _264  and  _265
REMARK  109  A    between atoms: _264  and  _267
REMARK  110  A    between atoms: _267  and  _268
REMARK  111  A    between atoms: _271  and  _273
REMARK  112  A    between atoms: _273  and  _274
REMARK  113  A    between atoms: _273  and  _276
REMARK  114  A    between atoms: _276  and  _277
REMARK  115  A    between atoms: _280  and  _282
REMARK  116  A    between atoms: _282  and  _283
REMARK  117  A    between atoms: _282  and  _285
REMARK  118  A    between atoms: _285  and  _286
REMARK  119  A    between atoms: _286  and  _287
REMARK  120  A    between atoms: _292  and  _294
REMARK  121  A    between atoms: _294  and  _295
REMARK  122  A    between atoms: _294  and  _297
REMARK  123  A    between atoms: _297  and  _298
REMARK  124  A    between atoms: _301  and  _303
REMARK  125  A    between atoms: _303  and  _304
REMARK  126  A    between atoms: _303  and  _306
REMARK  127  A    between atoms: _306  and  _307
REMARK  128  A    between atoms: _310  and  _312
REMARK  129  A    between atoms: _312  and  _313
REMARK  130  A    between atoms: _312  and  _315
REMARK  131  A    between atoms: _315  and  _316
REMARK  132  A    between atoms: _316  and  _317
REMARK  133  A    between atoms: _322  and  _324
REMARK  134  A    between atoms: _324  and  _325
REMARK  135  A    between atoms: _327  and  _329
REMARK  136  A    between atoms: _329  and  _330
REMARK  137  A    between atoms: _329  and  _332
REMARK  138  A    between atoms: _332  and  _333
REMARK  139  A    between atoms: _336  and  _338
REMARK  140  A    between atoms: _338  and  _339
REMARK  141  A    between atoms: _338  and  _341
REMARK  142  A    between atoms: _341  and  _342
REMARK  143  A    between atoms: _345  and  _347
REMARK  144  A    between atoms: _347  and  _348
REMARK  145  A    between atoms: _347  and  _350
REMARK  146  A    between atoms: _350  and  _351
REMARK  147  A    between atoms: _356  and  _358
REMARK  148  A    between atoms: _358  and  _359
REMARK  149  A    between atoms: _358  and  _361
REMARK  150  A    between atoms: _361  and  _362
REMARK  151  A    between atoms: _365  and  _367
REMARK  152  A    between atoms: _367  and  _368
REMARK  153  A    between atoms: _367  and  _370
REMARK  154  A    between atoms: _370  and  _371
REMARK  155  A    between atoms: _373  and  _375
REMARK  156  A    between atoms: _375  and  _376
REMARK  157  A    between atoms: _375  and  _378
REMARK  158  A    between atoms: _378  and  _379
REMARK  159  A    between atoms: _379  and  _380
REMARK  160  A    between atoms: _385  and  _387
REMARK  161  A    between atoms: _387  and  _388
REMARK  162  A    between atoms: _387  and  _390
REMARK  163  A    between atoms: _390  and  _391
REMARK  164  A    between atoms: _394  and  _396
REMARK  165  A    between atoms: _396  and  _397
REMARK  166  A    between atoms: _396  and  _399
REMARK  167  A    between atoms: _402  and  _404
REMARK  168  A    between atoms: _404  and  _405
REMARK  169  A    between atoms: _404  and  _407
REMARK  170  A    between atoms: _407  and  _408
REMARK  171  A    between atoms: _408  and  _409
REMARK  172  A    between atoms: _409  and  _410
REMARK  173  A    between atoms: _419  and  _421
REMARK  174  A    between atoms: _421  and  _422
REMARK  175  A    between atoms: _421  and  _424
REMARK  176  A    between atoms: _424  and  _425
REMARK  177  A    between atoms: _428  and  _430
REMARK  178  A    between atoms: _430  and  _431
REMARK  179  A    between atoms: _430  and  _433
REMARK  180  A    between atoms: _433  and  _434
REMARK  181  A    between atoms: _444  and  _446
REMARK  182  A    between atoms: _446  and  _447
REMARK  183  A    between atoms: _446  and  _449
REMARK  184  A    between atoms: _449  and  _450
REMARK  185  A    between atoms: _454  and  _455
REMARK  186  A    between atoms: _460  and  _462
REMARK  187  A    between atoms: _462  and  _463
REMARK  188  A    between atoms: _462  and  _465
REMARK  189  A    between atoms: _465  and  _466
REMARK  190  A    between atoms: _472  and  _473
REMARK  191  A    between atoms: _478  and  _480
REMARK  192  A    between atoms: _480  and  _481
REMARK  193  A    between atoms: _483  and  _485
REMARK  194  A    between atoms: _485  and  _486
REMARK  195  A    between atoms: _485  and  _488
REMARK  196  A    between atoms: _488  and  _489
REMARK  197  A    between atoms: _492  and  _494
REMARK  198  A    between atoms: _494  and  _495
REMARK  199  A    between atoms: _494  and  _497
REMARK  200  A    between atoms: _497  and  _498
REMARK  201  A    between atoms: _498  and  _499
REMARK  202  A    between atoms: _499  and  _500
REMARK  203  A    between atoms: _500  and  _501
REMARK  204  A    between atoms: _505  and  _507
REMARK  205  A    between atoms: _507  and  _508
REMARK  206  A    between atoms: _507  and  _510
REMARK  207  A    between atoms: _513  and  _515
REMARK  208  A    between atoms: _515  and  _516
REMARK  209  A    between atoms: _519  and  _521
REMARK  210  A    between atoms: _521  and  _522
REMARK  211  A    between atoms: _521  and  _524
REMARK  212  A    between atoms: _524  and  _525
REMARK  213  A    between atoms: _528  and  _530
REMARK  214  A    between atoms: _530  and  _531
REMARK  215  A    between atoms: _530  and  _533
REMARK  216  A    between atoms: _533  and  _534
REMARK  217  A    between atoms: _540  and  _541
REMARK  218  A    between atoms: _546  and  _548
REMARK  219  A    between atoms: _548  and  _549
REMARK  220  A    between atoms: _548  and  _551
REMARK  221  A    between atoms: _551  and  _552
REMARK  222  A    between atoms: _558  and  _560
REMARK  223  A    between atoms: _560  and  _561
REMARK  224  A    between atoms: _560  and  _563
REMARK  225  A    between atoms: _563  and  _564
REMARK  226  A    between atoms: _567  and  _569
REMARK  227  A    between atoms: _569  and  _570
REMARK  228  A    between atoms: _572  and  _574
REMARK  229  A    between atoms: _574  and  _575
REMARK  230  A    between atoms: _574  and  _577
REMARK  231  A    between atoms: _577  and  _578
REMARK  232  A    between atoms: _581  and  _583
REMARK  233  A    between atoms: _583  and  _584
REMARK  234  A    between atoms: _583  and  _586
REMARK  235  A    between atoms: _586  and  _587
REMARK  236  A    between atoms: _593  and  _595
REMARK  237  A    between atoms: _595  and  _596
REMARK  238  A    between atoms: _595  and  _598
REMARK  239  A    between atoms: _598  and  _599
REMARK  240  A    between atoms: _599  and  _600
REMARK  241  A    between atoms: _605  and  _607
REMARK  242  A    between atoms: _607  and  _608
REMARK  243  A    between atoms: _607  and  _610
REMARK  244  A    between atoms: _610  and  _611
REMARK  245  A    between atoms: _614  and  _616
REMARK  246  A    between atoms: _616  and  _617
REMARK  247  A    between atoms: _616  and  _619
REMARK  248  A    between atoms: _619  and  _620
REMARK  249  A    between atoms: _622  and  _624
REMARK  250  A    between atoms: _624  and  _625
REMARK  251  A    between atoms: _624  and  _627
REMARK  252  A    between atoms: _627  and  _628
REMARK  253  A    between atoms: _634  and  _636
REMARK  254  A    between atoms: _636  and  _637
REMARK  255  A    between atoms: _636  and  _639
REMARK  256  A    between atoms: _639  and  _640
REMARK  257  A    between atoms: _645  and  _646
REMARK  258  A    between atoms: _648  and  _650
REMARK  259  A    between atoms: _650  and  _651
REMARK  260  A    between atoms: _650  and  _653
REMARK  261  A    between atoms: _653  and  _654
REMARK                            x       y       z     vdW  Elec       q    Type
REMARK                         _______ _______ _______ _____ _____    ______ ____
ROOT
ATOM      1  O   HOH     1      31.058  -0.850 -46.991  0.00  0.00    +0.000 OA
ENDROOT
TORSDOF 0
REMARK  Name = ../refined-set-2016/4idn/4idn_pocket.pdb
REMARK  261 active torsions:
REMARK  status: ('A' for Active; 'I' for Inactive)
REMARK    1  A    between atoms: _1  and  _3
REMARK    2  A    between atoms: _3  and  _4
REMARK    3  A    between atoms: _3  and  _6
REMARK    4  A    between atoms: _9  and  _11
REMARK    5  A    between atoms: _11  and  _12
REMARK    6  A    between atoms: _15  and  _17
REMARK    7  A    between atoms: _17  and  _18
REMARK    8  A    between atoms: _20  and  _22
REMARK    9  A    between atoms: _22  and  _23
REMARK   10  A    between atoms: _26  and  _28
REMARK   11  A    between atoms: _28  and  _29
REMARK   12  A    between atoms: _28  and  _31
REMARK   13  A    between atoms: _31  and  _32
REMARK   14  A    between atoms: _38  and  _40
REMARK   15  A    between atoms: _40  and  _41
REMARK   16  A    between atoms: _40  and  _43
REMARK   17  A    between atoms: _43  and  _44
REMARK   18  A    between atoms: _44  and  _45
REMARK   19  A    between atoms: _45  and  _46
REMARK   20  A    between atoms: _55  and  _57
REMARK   21  A    between atoms: _57  and  _58
REMARK   22  A    between atoms: _57  and  _60
REMARK   23  A    between atoms: _60  and  _61
REMARK   24  A    between atoms: _61  and  _62
REMARK   25  A    between atoms: _62  and  _63
REMARK   26  A    between atoms: _63  and  _64
REMARK   27  A    between atoms: _68  and  _70
REMARK   28  A    between atoms: _70  and  _71
REMARK   29  A    between atoms: _73  and  _75
REMARK   30  A    between atoms: _75  and  _76
REMARK   31  A    between atoms: _75  and  _78
REMARK   32  A    between atoms: _78  and  _79
REMARK   33  A    between atoms: _79  and  _80
REMARK   34  A    between atoms: _80  and  _81
REMARK   35  A    between atoms: _81  and  _82
REMARK   36  A    between atoms: _86  and  _88
REMARK   37  A    between atoms: _88  and  _89
REMARK   38  A    between atoms: _88  and  _91
REMARK   39  A    between atoms: _91  and  _92
REMARK   40  A    between atoms: _94  and  _96
REMARK   41  A    between atoms: _96  and  _97
REMARK   42  A    between atoms: _96  and  _99
REMARK   43  A    between atoms: _99  and  _100
REMARK   44  A    between atoms: _106  and  _108
REMARK   45  A    between atoms: _108  and  _109
REMARK   46  A    between atoms: _108  and  _111
REMARK   47  A    between atoms: _111  and  _112
REMARK   48  A    between atoms: _115  and  _117
REMARK   49  A    between atoms: _117  and  _118
REMARK   50  A    between atoms: _117  and  _120
REMARK   51  A    between atoms: _120  and  _121
REMARK   52  A    between atoms: _121  and  _122
REMARK   53  A    between atoms: _124  and  _126
REMARK   54  A    between atoms: _126  and  _127
REMARK   55  A    between atoms: _126  and  _129
REMARK   56  A    between atoms: _129  and  _130
REMARK   57  A    between atoms: _133  and  _135
REMARK   58  A    between atoms: _135  and  _136
REMARK   59  A    between atoms: _135  and  _138
REMARK   60  A    between atoms: _138  and  _139
REMARK   61  A    between atoms: _145  and  _147
REMARK   62  A    between atoms: _147  and  _148
REMARK   63  A    between atoms: _147  and  _150
REMARK   64  A    between atoms: _150  and  _151
REMARK   65  A    between atoms: _154  and  _156
REMARK   66  A    between atoms: _156  and  _157
REMARK   67  A    between atoms: _156  and  _159
REMARK   68  A    between atoms: _159  and  _160
REMARK   69  A    between atoms: _166  and  _168
REMARK   70  A    between atoms: _168  and  _169
REMARK   71  A    between atoms: _168  and  _171
REMARK   72  A    between atoms: _171  and  _172
REMARK   73  A    between atoms: _174  and  _176
REMARK   74  A    between atoms: _176  and  _177
REMARK   75  A    between atoms: _176  and  _179
REMARK   76  A    between atoms: _179  and  _180
REMARK   77  A    between atoms: _190  and  _192
REMARK   78  A    between atoms: _192  and  _193
REMARK   79  A    between atoms: _192  and  _195
REMARK   80  A    between atoms: _195  and  _196
REMARK   81  A    between atoms: _196  and  _197
REMARK   82  A    between atoms: _197  and  _198
REMARK   83  A    between atoms: _207  and  _209
REMARK   84  A    between atoms: _209  and  _210
REMARK   85  A    between atoms: _212  and  _214
REMARK   86  A    between atoms: _214  and  _215
REMARK   87  A    between atoms: _217  and  _219
REMARK   88  A    between atoms: _219  and  _220
REMARK   89  A    between atoms: _219  and  _222
REMARK   90  A    between atoms: _222  and  _223
REMARK   91  A    between atoms: _225  and  _227
REMARK   92  A    between atoms: _227  and  _228
REMARK   93  A    between atoms: _227  and  _230
REMARK   94  A    between atoms: _230  and  _231
REMARK   95  A    between atoms: _231  and  _232
REMARK   96  A    between atoms: _235  and  _237
REMARK   97  A    between atoms: _237  and  _238
REMARK   98  A    between atoms: _237  and  _240
REMARK   99  A    between atoms: _240  and  _241
REMARK  100  A    between atoms: _241  and  _242
REMARK  101  A    between atoms: _242  and  _243
REMARK  102  A    between atoms: _252  and  _254
REMARK  103  A    between atoms: _254  and  _255
REMARK  104  A    between atoms: _254  and  _257
REMARK  105  A    between atoms: _257  and  _258
REMARK  106  A    between atoms: _258  and  _259
REMARK  107  A    between atoms: _262  and  _264
REMARK  108  A    between atoms: _264  and  _265
REMARK  109  A    between atoms: _264  and  _267
REMARK  110  A    between atoms: _267  and  _268
REMARK  111  A    between atoms: _271  and  _273
REMARK  112  A    between atoms: _273  and  _274
REMARK  113  A    between atoms: _273  and  _276
REMARK  114  A    between atoms: _276  and  _277
REMARK  115  A    between atoms: _280  and  _282
REMARK  116  A    between atoms: _282  and  _283
REMARK  117  A    between atoms: _282  and  _285
REMARK  118  A    between atoms: _285  and  _286
REMARK  119  A    between atoms: _286  and  _287
REMARK  120  A    between atoms: _292  and  _294
REMARK  121  A    between atoms: _294  and  _295
REMARK  122  A    between atoms: _294  and  _297
REMARK  123  A    between atoms: _297  and  _298
REMARK  124  A    between atoms: _301  and  _303
REMARK  125  A    between atoms: _303  and  _304
REMARK  126  A    between atoms: _303  and  _306
REMARK  127  A    between atoms: _306  and  _307
REMARK  128  A    between atoms: _310  and  _312
REMARK  129  A    between atoms: _312  and  _313
REMARK  130  A    between atoms: _312  and  _315
REMARK  131  A    between atoms: _315  and  _316
REMARK  132  A    between atoms: _316  and  _317
REMARK  133  A    between atoms: _322  and  _324
REMARK  134  A    between atoms: _324  and  _325
REMARK  135  A    between atoms: _327  and  _329
REMARK  136  A    between atoms: _329  and  _330
REMARK  137  A    between atoms: _329  and  _332
REMARK  138  A    between atoms: _332  and  _333
REMARK  139  A    between atoms: _336  and  _338
REMARK  140  A    between atoms: _338  and  _339
REMARK  141  A    between atoms: _338  and  _341
REMARK  142  A    between atoms: _341  and  _342
REMARK  143  A    between atoms: _345  and  _347
REMARK  144  A    between atoms: _347  and  _348
REMARK  145  A    between atoms: _347  and  _350
REMARK  146  A    between atoms: _350  and  _351
REMARK  147  A    between atoms: _356  and  _358
REMARK  148  A    between atoms: _358  and  _359
REMARK  149  A    between atoms: _358  and  _361
REMARK  150  A    between atoms: _361  and  _362
REMARK  151  A    between atoms: _365  and  _367
REMARK  152  A    between atoms: _367  and  _368
REMARK  153  A    between atoms: _367  and  _370
REMARK  154  A    between atoms: _370  and  _371
REMARK  155  A    between atoms: _373  and  _375
REMARK  156  A    between atoms: _375  and  _376
REMARK  157  A    between atoms: _375  and  _378
REMARK  158  A    between atoms: _378  and  _379
REMARK  159  A    between atoms: _379  and  _380
REMARK  160  A    between atoms: _385  and  _387
REMARK  161  A    between atoms: _387  and  _388
REMARK  162  A    between atoms: _387  and  _390
REMARK  163  A    between atoms: _390  and  _391
REMARK  164  A    between atoms: _394  and  _396
REMARK  165  A    between atoms: _396  and  _397
REMARK  166  A    between atoms: _396  and  _399
REMARK  167  A    between atoms: _402  and  _404
REMARK  168  A    between atoms: _404  and  _405
REMARK  169  A    between atoms: _404  and  _407
REMARK  170  A    between atoms: _407  and  _408
REMARK  171  A    between atoms: _408  and  _409
REMARK  172  A    between atoms: _409  and  _410
REMARK  173  A    between atoms: _419  and  _421
REMARK  174  A    between atoms: _421  and  _422
REMARK  175  A    between atoms: _421  and  _424
REMARK  176  A    between atoms: _424  and  _425
REMARK  177  A    between atoms: _428  and  _430
REMARK  178  A    between atoms: _430  and  _431
REMARK  179  A    between atoms: _430  and  _433
REMARK  180  A    between atoms: _433  and  _434
REMARK  181  A    between atoms: _444  and  _446
REMARK  182  A    between atoms: _446  and  _447
REMARK  183  A    between atoms: _446  and  _449
REMARK  184  A    between atoms: _449  and  _450
REMARK  185  A    between atoms: _454  and  _455
REMARK  186  A    between atoms: _460  and  _462
REMARK  187  A    between atoms: _462  and  _463
REMARK  188  A    between atoms: _462  and  _465
REMARK  189  A    between atoms: _465  and  _466
REMARK  190  A    between atoms: _472  and  _473
REMARK  191  A    between atoms: _478  and  _480
REMARK  192  A    between atoms: _480  and  _481
REMARK  193  A    between atoms: _483  and  _485
REMARK  194  A    between atoms: _485  and  _486
REMARK  195  A    between atoms: _485  and  _488
REMARK  196  A    between atoms: _488  and  _489
REMARK  197  A    between atoms: _492  and  _494
REMARK  198  A    between atoms: _494  and  _495
REMARK  199  A    between atoms: _494  and  _497
REMARK  200  A    between atoms: _497  and  _498
REMARK  201  A    between atoms: _498  and  _499
REMARK  202  A    between atoms: _499  and  _500
REMARK  203  A    between atoms: _500  and  _501
REMARK  204  A    between atoms: _505  and  _507
REMARK  205  A    between atoms: _507  and  _508
REMARK  206  A    between atoms: _507  and  _510
REMARK  207  A    between atoms: _513  and  _515
REMARK  208  A    between atoms: _515  and  _516
REMARK  209  A    between atoms: _519  and  _521
REMARK  210  A    between atoms: _521  and  _522
REMARK  211  A    between atoms: _521  and  _524
REMARK  212  A    between atoms: _524  and  _525
REMARK  213  A    between atoms: _528  and  _530
REMARK  214  A    between atoms: _530  and  _531
REMARK  215  A    between atoms: _530  and  _533
REMARK  216  A    between atoms: _533  and  _534
REMARK  217  A    between atoms: _540  and  _541
REMARK  218  A    between atoms: _546  and  _548
REMARK  219  A    between atoms: _548  and  _549
REMARK  220  A    between atoms: _548  and  _551
REMARK  221  A    between atoms: _551  and  _552
REMARK  222  A    between atoms: _558  and  _560
REMARK  223  A    between atoms: _560  and  _561
REMARK  224  A    between atoms: _560  and  _563
REMARK  225  A    between atoms: _563  and  _564
REMARK  226  A    between atoms: _567  and  _569
REMARK  227  A    between atoms: _569  and  _570
REMARK  228  A    between atoms: _572  and  _574
REMARK  229  A    between atoms: _574  and  _575
REMARK  230  A    between atoms: _574  and  _577
REMARK  231  A    between atoms: _577  and  _578
REMARK  232  A    between atoms: _581  and  _583
REMARK  233  A    between atoms: _583  and  _584
REMARK  234  A    between atoms: _583  and  _586
REMARK  235  A    between atoms: _586  and  _587
REMARK  236  A    between atoms: _593  and  _595
REMARK  237  A    between atoms: _595  and  _596
REMARK  238  A    between atoms: _595  and  _598
REMARK  239  A    between atoms: _598  and  _599
REMARK  240  A    between atoms: _599  and  _600
REMARK  241  A    between atoms: _605  and  _607
REMARK  242  A    between atoms: _607  and  _608
REMARK  243  A    between atoms: _607  and  _610
REMARK  244  A    between atoms: _610  and  _611
REMARK  245  A    between atoms: _614  and  _616
REMARK  246  A    between atoms: _616  and  _617
REMARK  247  A    between atoms: _616  and  _619
REMARK  248  A    between atoms: _619  and  _620
REMARK  249  A    between atoms: _622  and  _624
REMARK  250  A    between atoms: _624  and  _625
REMARK  251  A    between atoms: _624  and  _627
REMARK  252  A    between atoms: _627  and  _628
REMARK  253  A    between atoms: _634  and  _636
REMARK  254  A    between atoms: _636  and  _637
REMARK  255  A    between atoms: _636  and  _639
REMARK  256  A    between atoms: _639  and  _640
REMARK  257  A    between atoms: _645  and  _646
REMARK  258  A    between atoms: _648  and  _650
REMARK  259  A    between atoms: _650  and  _651
REMARK  260  A    between atoms: _650  and  _653
REMARK  261  A    between atoms: _653  and  _654
REMARK                            x       y       z     vdW  Elec       q    Type
REMARK                         _______ _______ _______ _____ _____    ______ ____
ROOT
ATOM      1  O   HOH     1      13.910  -0.030 -51.090  0.00  0.00    +0.000 OA
ENDROOT
TORSDOF 0
REMARK  Name = ../refined-set-2016/4idn/4idn_pocket.pdb
REMARK  261 active torsions:
REMARK  status: ('A' for Active; 'I' for Inactive)
REMARK    1  A    between atoms: _1  and  _3
REMARK    2  A    between atoms: _3  and  _4
REMARK    3  A    between atoms: _3  and  _6
REMARK    4  A    between atoms: _9  and  _11
REMARK    5  A    between atoms: _11  and  _12
REMARK    6  A    between atoms: _15  and  _17
REMARK    7  A    between atoms: _17  and  _18
REMARK    8  A    between atoms: _20  and  _22
REMARK    9  A    between atoms: _22  and  _23
REMARK   10  A    between atoms: _26  and  _28
REMARK   11  A    between atoms: _28  and  _29
REMARK   12  A    between atoms: _28  and  _31
REMARK   13  A    between atoms: _31  and  _32
REMARK   14  A    between atoms: _38  and  _40
REMARK   15  A    between atoms: _40  and  _41
REMARK   16  A    between atoms: _40  and  _43
REMARK   17  A    between atoms: _43  and  _44
REMARK   18  A    between atoms: _44  and  _45
REMARK   19  A    between atoms: _45  and  _46
REMARK   20  A    between atoms: _55  and  _57
REMARK   21  A    between atoms: _57  and  _58
REMARK   22  A    between atoms: _57  and  _60
REMARK   23  A    between atoms: _60  and  _61
REMARK   24  A    between atoms: _61  and  _62
REMARK   25  A    between atoms: _62  and  _63
REMARK   26  A    between atoms: _63  and  _64
REMARK   27  A    between atoms: _68  and  _70
REMARK   28  A    between atoms: _70  and  _71
REMARK   29  A    between atoms: _73  and  _75
REMARK   30  A    between atoms: _75  and  _76
REMARK   31  A    between atoms: _75  and  _78
REMARK   32  A    between atoms: _78  and  _79
REMARK   33  A    between atoms: _79  and  _80
REMARK   34  A    between atoms: _80  and  _81
REMARK   35  A    between atoms: _81  and  _82
REMARK   36  A    between atoms: _86  and  _88
REMARK   37  A    between atoms: _88  and  _89
REMARK   38  A    between atoms: _88  and  _91
REMARK   39  A    between atoms: _91  and  _92
REMARK   40  A    between atoms: _94  and  _96
REMARK   41  A    between atoms: _96  and  _97
REMARK   42  A    between atoms: _96  and  _99
REMARK   43  A    between atoms: _99  and  _100
REMARK   44  A    between atoms: _106  and  _108
REMARK   45  A    between atoms: _108  and  _109
REMARK   46  A    between atoms: _108  and  _111
REMARK   47  A    between atoms: _111  and  _112
REMARK   48  A    between atoms: _115  and  _117
REMARK   49  A    between atoms: _117  and  _118
REMARK   50  A    between atoms: _117  and  _120
REMARK   51  A    between atoms: _120  and  _121
REMARK   52  A    between atoms: _121  and  _122
REMARK   53  A    between atoms: _124  and  _126
REMARK   54  A    between atoms: _126  and  _127
REMARK   55  A    between atoms: _126  and  _129
REMARK   56  A    between atoms: _129  and  _130
REMARK   57  A    between atoms: _133  and  _135
REMARK   58  A    between atoms: _135  and  _136
REMARK   59  A    between atoms: _135  and  _138
REMARK   60  A    between atoms: _138  and  _139
REMARK   61  A    between atoms: _145  and  _147
REMARK   62  A    between atoms: _147  and  _148
REMARK   63  A    between atoms: _147  and  _150
REMARK   64  A    between atoms: _150  and  _151
REMARK   65  A    between atoms: _154  and  _156
REMARK   66  A    between atoms: _156  and  _157
REMARK   67  A    between atoms: _156  and  _159
REMARK   68  A    between atoms: _159  and  _160
REMARK   69  A    between atoms: _166  and  _168
REMARK   70  A    between atoms: _168  and  _169
REMARK   71  A    between atoms: _168  and  _171
REMARK   72  A    between atoms: _171  and  _172
REMARK   73  A    between atoms: _174  and  _176
REMARK   74  A    between atoms: _176  and  _177
REMARK   75  A    between atoms: _176  and  _179
REMARK   76  A    between atoms: _179  and  _180
REMARK   77  A    between atoms: _190  and  _192
REMARK   78  A    between atoms: _192  and  _193
REMARK   79  A    between atoms: _192  and  _195
REMARK   80  A    between atoms: _195  and  _196
REMARK   81  A    between atoms: _196  and  _197
REMARK   82  A    between atoms: _197  and  _198
REMARK   83  A    between atoms: _207  and  _209
REMARK   84  A    between atoms: _209  and  _210
REMARK   85  A    between atoms: _212  and  _214
REMARK   86  A    between atoms: _214  and  _215
REMARK   87  A    between atoms: _217  and  _219
REMARK   88  A    between atoms: _219  and  _220
REMARK   89  A    between atoms: _219  and  _222
REMARK   90  A    between atoms: _222  and  _223
REMARK   91  A    between atoms: _225  and  _227
REMARK   92  A    between atoms: _227  and  _228
REMARK   93  A    between atoms: _227  and  _230
REMARK   94  A    between atoms: _230  and  _231
REMARK   95  A    between atoms: _231  and  _232
REMARK   96  A    between atoms: _235  and  _237
REMARK   97  A    between atoms: _237  and  _238
REMARK   98  A    between atoms: _237  and  _240
REMARK   99  A    between atoms: _240  and  _241
REMARK  100  A    between atoms: _241  and  _242
REMARK  101  A    between atoms: _242  and  _243
REMARK  102  A    between atoms: _252  and  _254
REMARK  103  A    between atoms: _254  and  _255
REMARK  104  A    between atoms: _254  and  _257
REMARK  105  A    between atoms: _257  and  _258
REMARK  106  A    between atoms: _258  and  _259
REMARK  107  A    between atoms: _262  and  _264
REMARK  108  A    between atoms: _264  and  _265
REMARK  109  A    between atoms: _264  and  _267
REMARK  110  A    between atoms: _267  and  _268
REMARK  111  A    between atoms: _271  and  _273
REMARK  112  A    between atoms: _273  and  _274
REMARK  113  A    between atoms: _273  and  _276
REMARK  114  A    between atoms: _276  and  _277
REMARK  115  A    between atoms: _280  and  _282
REMARK  116  A    between atoms: _282  and  _283
REMARK  117  A    between atoms: _282  and  _285
REMARK  118  A    between atoms: _285  and  _286
REMARK  119  A    between atoms: _286  and  _287
REMARK  120  A    between atoms: _292  and  _294
REMARK  121  A    between atoms: _294  and  _295
REMARK  122  A    between atoms: _294  and  _297
REMARK  123  A    between atoms: _297  and  _298
REMARK  124  A    between atoms: _301  and  _303
REMARK  125  A    between atoms: _303  and  _304
REMARK  126  A    between atoms: _303  and  _306
REMARK  127  A    between atoms: _306  and  _307
REMARK  128  A    between atoms: _310  and  _312
REMARK  129  A    between atoms: _312  and  _313
REMARK  130  A    between atoms: _312  and  _315
REMARK  131  A    between atoms: _315  and  _316
REMARK  132  A    between atoms: _316  and  _317
REMARK  133  A    between atoms: _322  and  _324
REMARK  134  A    between atoms: _324  and  _325
REMARK  135  A    between atoms: _327  and  _329
REMARK  136  A    between atoms: _329  and  _330
REMARK  137  A    between atoms: _329  and  _332
REMARK  138  A    between atoms: _332  and  _333
REMARK  139  A    between atoms: _336  and  _338
REMARK  140  A    between atoms: _338  and  _339
REMARK  141  A    between atoms: _338  and  _341
REMARK  142  A    between atoms: _341  and  _342
REMARK  143  A    between atoms: _345  and  _347
REMARK  144  A    between atoms: _347  and  _348
REMARK  145  A    between atoms: _347  and  _350
REMARK  146  A    between atoms: _350  and  _351
REMARK  147  A    between atoms: _356  and  _358
REMARK  148  A    between atoms: _358  and  _359
REMARK  149  A    between atoms: _358  and  _361
REMARK  150  A    between atoms: _361  and  _362
REMARK  151  A    between atoms: _365  and  _367
REMARK  152  A    between atoms: _367  and  _368
REMARK  153  A    between atoms: _367  and  _370
REMARK  154  A    between atoms: _370  and  _371
REMARK  155  A    between atoms: _373  and  _375
REMARK  156  A    between atoms: _375  and  _376
REMARK  157  A    between atoms: _375  and  _378
REMARK  158  A    between atoms: _378  and  _379
REMARK  159  A    between atoms: _379  and  _380
REMARK  160  A    between atoms: _385  and  _387
REMARK  161  A    between atoms: _387  and  _388
REMARK  162  A    between atoms: _387  and  _390
REMARK  163  A    between atoms: _390  and  _391
REMARK  164  A    between atoms: _394  and  _396
REMARK  165  A    between atoms: _396  and  _397
REMARK  166  A    between atoms: _396  and  _399
REMARK  167  A    between atoms: _402  and  _404
REMARK  168  A    between atoms: _404  and  _405
REMARK  169  A    between atoms: _404  and  _407
REMARK  170  A    between atoms: _407  and  _408
REMARK  171  A    between atoms: _408  and  _409
REMARK  172  A    between atoms: _409  and  _410
REMARK  173  A    between atoms: _419  and  _421
REMARK  174  A    between atoms: _421  and  _422
REMARK  175  A    between atoms: _421  and  _424
REMARK  176  A    between atoms: _424  and  _425
REMARK  177  A    between atoms: _428  and  _430
REMARK  178  A    between atoms: _430  and  _431
REMARK  179  A    between atoms: _430  and  _433
REMARK  180  A    between atoms: _433  and  _434
REMARK  181  A    between atoms: _444  and  _446
REMARK  182  A    between atoms: _446  and  _447
REMARK  183  A    between atoms: _446  and  _449
REMARK  184  A    between atoms: _449  and  _450
REMARK  185  A    between atoms: _454  and  _455
REMARK  186  A    between atoms: _460  and  _462
REMARK  187  A    between atoms: _462  and  _463
REMARK  188  A    between atoms: _462  and  _465
REMARK  189  A    between atoms: _465  and  _466
REMARK  190  A    between atoms: _472  and  _473
REMARK  191  A    between atoms: _478  and  _480
REMARK  192  A    between atoms: _480  and  _481
REMARK  193  A    between atoms: _483  and  _485
REMARK  194  A    between atoms: _485  and  _486
REMARK  195  A    between atoms: _485  and  _488
REMARK  196  A    between atoms: _488  and  _489
REMARK  197  A    between atoms: _492  and  _494
REMARK  198  A    between atoms: _494  and  _495
REMARK  199  A    between atoms: _494  and  _497
REMARK  200  A    between atoms: _497  and  _498
REMARK  201  A    between atoms: _498  and  _499
REMARK  202  A    between atoms: _499  and  _500
REMARK  203  A    between atoms: _500  and  _501
REMARK  204  A    between atoms: _505  and  _507
REMARK  205  A    between atoms: _507  and  _508
REMARK  206  A    between atoms: _507  and  _510
REMARK  207  A    between atoms: _513  and  _515
REMARK  208  A    between atoms: _515  and  _516
REMARK  209  A    between atoms: _519  and  _521
REMARK  210  A    between atoms: _521  and  _522
REMARK  211  A    between atoms: _521  and  _524
REMARK  212  A    between atoms: _524  and  _525
REMARK  213  A    between atoms: _528  and  _530
REMARK  214  A    between atoms: _530  and  _531
REMARK  215  A    between atoms: _530  and  _533
REMARK  216  A    between atoms: _533  and  _534
REMARK  217  A    between atoms: _540  and  _541
REMARK  218  A    between atoms: _546  and  _548
REMARK  219  A    between atoms: _548  and  _549
REMARK  220  A    between atoms: _548  and  _551
REMARK  221  A    between atoms: _551  and  _552
REMARK  222  A    between atoms: _558  and  _560
REMARK  223  A    between atoms: _560  and  _561
REMARK  224  A    between atoms: _560  and  _563
REMARK  225  A    between atoms: _563  and  _564
REMARK  226  A    between atoms: _567  and  _569
REMARK  227  A    between atoms: _569  and  _570
REMARK  228  A    between atoms: _572  and  _574
REMARK  229  A    between atoms: _574  and  _575
REMARK  230  A    between atoms: _574  and  _577
REMARK  231  A    between atoms: _577  and  _578
REMARK  232  A    between atoms: _581  and  _583
REMARK  233  A    between atoms: _583  and  _584
REMARK  234  A    between atoms: _583  and  _586
REMARK  235  A    between atoms: _586  and  _587
REMARK  236  A    between atoms: _593  and  _595
REMARK  237  A    between atoms: _595  and  _596
REMARK  238  A    between atoms: _595  and  _598
REMARK  239  A    between atoms: _598  and  _599
REMARK  240  A    between atoms: _599  and  _600
REMARK  241  A    between atoms: _605  and  _607
REMARK  242  A    between atoms: _607  and  _608
REMARK  243  A    between atoms: _607  and  _610
REMARK  244  A    between atoms: _610  and  _611
REMARK  245  A    between atoms: _614  and  _616
REMARK  246  A    between atoms: _616  and  _617
REMARK  247  A    between atoms: _616  and  _619
REMARK  248  A    between atoms: _619  and  _620
REMARK  249  A    between atoms: _622  and  _624
REMARK  250  A    between atoms: _624  and  _625
REMARK  251  A    between atoms: _624  and  _627
REMARK  252  A    between atoms: _627  and  _628
REMARK  253  A    between atoms: _634  and  _636
REMARK  254  A    between atoms: _636  and  _637
REMARK  255  A    between atoms: _636  and  _639
REMARK  256  A    between atoms: _639  and  _640
REMARK  257  A    between atoms: _645  and  _646
REMARK  258  A    between atoms: _648  and  _650
REMARK  259  A    between atoms: _650  and  _651
REMARK  260  A    between atoms: _650  and  _653
REMARK  261  A    between atoms: _653  and  _654
REMARK                            x       y       z     vdW  Elec       q    Type
REMARK                         _______ _______ _______ _____ _____    ______ ____
ROOT
ATOM      1  O   HOH     1      14.905  -5.368 -54.238  0.00  0.00    +0.000 OA
ENDROOT
TORSDOF 0
REMARK  Name = ../refined-set-2016/4idn/4idn_pocket.pdb
REMARK  261 active torsions:
REMARK  status: ('A' for Active; 'I' for Inactive)
REMARK    1  A    between atoms: _1  and  _3
REMARK    2  A    between atoms: _3  and  _4
REMARK    3  A    between atoms: _3  and  _6
REMARK    4  A    between atoms: _9  and  _11
REMARK    5  A    between atoms: _11  and  _12
REMARK    6  A    between atoms: _15  and  _17
REMARK    7  A    between atoms: _17  and  _18
REMARK    8  A    between atoms: _20  and  _22
REMARK    9  A    between atoms: _22  and  _23
REMARK   10  A    between atoms: _26  and  _28
REMARK   11  A    between atoms: _28  and  _29
REMARK   12  A    between atoms: _28  and  _31
REMARK   13  A    between atoms: _31  and  _32
REMARK   14  A    between atoms: _38  and  _40
REMARK   15  A    between atoms: _40  and  _41
REMARK   16  A    between atoms: _40  and  _43
REMARK   17  A    between atoms: _43  and  _44
REMARK   18  A    between atoms: _44  and  _45
REMARK   19  A    between atoms: _45  and  _46
REMARK   20  A    between atoms: _55  and  _57
REMARK   21  A    between atoms: _57  and  _58
REMARK   22  A    between atoms: _57  and  _60
REMARK   23  A    between atoms: _60  and  _61
REMARK   24  A    between atoms: _61  and  _62
REMARK   25  A    between atoms: _62  and  _63
REMARK   26  A    between atoms: _63  and  _64
REMARK   27  A    between atoms: _68  and  _70
REMARK   28  A    between atoms: _70  and  _71
REMARK   29  A    between atoms: _73  and  _75
REMARK   30  A    between atoms: _75  and  _76
REMARK   31  A    between atoms: _75  and  _78
REMARK   32  A    between atoms: _78  and  _79
REMARK   33  A    between atoms: _79  and  _80
REMARK   34  A    between atoms: _80  and  _81
REMARK   35  A    between atoms: _81  and  _82
REMARK   36  A    between atoms: _86  and  _88
REMARK   37  A    between atoms: _88  and  _89
REMARK   38  A    between atoms: _88  and  _91
REMARK   39  A    between atoms: _91  and  _92
REMARK   40  A    between atoms: _94  and  _96
REMARK   41  A    between atoms: _96  and  _97
REMARK   42  A    between atoms: _96  and  _99
REMARK   43  A    between atoms: _99  and  _100
REMARK   44  A    between atoms: _106  and  _108
REMARK   45  A    between atoms: _108  and  _109
REMARK   46  A    between atoms: _108  and  _111
REMARK   47  A    between atoms: _111  and  _112
REMARK   48  A    between atoms: _115  and  _117
REMARK   49  A    between atoms: _117  and  _118
REMARK   50  A    between atoms: _117  and  _120
REMARK   51  A    between atoms: _120  and  _121
REMARK   52  A    between atoms: _121  and  _122
REMARK   53  A    between atoms: _124  and  _126
REMARK   54  A    between atoms: _126  and  _127
REMARK   55  A    between atoms: _126  and  _129
REMARK   56  A    between atoms: _129  and  _130
REMARK   57  A    between atoms: _133  and  _135
REMARK   58  A    between atoms: _135  and  _136
REMARK   59  A    between atoms: _135  and  _138
REMARK   60  A    between atoms: _138  and  _139
REMARK   61  A    between atoms: _145  and  _147
REMARK   62  A    between atoms: _147  and  _148
REMARK   63  A    between atoms: _147  and  _150
REMARK   64  A    between atoms: _150  and  _151
REMARK   65  A    between atoms: _154  and  _156
REMARK   66  A    between atoms: _156  and  _157
REMARK   67  A    between atoms: _156  and  _159
REMARK   68  A    between atoms: _159  and  _160
REMARK   69  A    between atoms: _166  and  _168
REMARK   70  A    between atoms: _168  and  _169
REMARK   71  A    between atoms: _168  and  _171
REMARK   72  A    between atoms: _171  and  _172
REMARK   73  A    between atoms: _174  and  _176
REMARK   74  A    between atoms: _176  and  _177
REMARK   75  A    between atoms: _176  and  _179
REMARK   76  A    between atoms: _179  and  _180
REMARK   77  A    between atoms: _190  and  _192
REMARK   78  A    between atoms: _192  and  _193
REMARK   79  A    between atoms: _192  and  _195
REMARK   80  A    between atoms: _195  and  _196
REMARK   81  A    between atoms: _196  and  _197
REMARK   82  A    between atoms: _197  and  _198
REMARK   83  A    between atoms: _207  and  _209
REMARK   84  A    between atoms: _209  and  _210
REMARK   85  A    between atoms: _212  and  _214
REMARK   86  A    between atoms: _214  and  _215
REMARK   87  A    between atoms: _217  and  _219
REMARK   88  A    between atoms: _219  and  _220
REMARK   89  A    between atoms: _219  and  _222
REMARK   90  A    between atoms: _222  and  _223
REMARK   91  A    between atoms: _225  and  _227
REMARK   92  A    between atoms: _227  and  _228
REMARK   93  A    between atoms: _227  and  _230
REMARK   94  A    between atoms: _230  and  _231
REMARK   95  A    between atoms: _231  and  _232
REMARK   96  A    between atoms: _235  and  _237
REMARK   97  A    between atoms: _237  and  _238
REMARK   98  A    between atoms: _237  and  _240
REMARK   99  A    between atoms: _240  and  _241
REMARK  100  A    between atoms: _241  and  _242
REMARK  101  A    between atoms: _242  and  _243
REMARK  102  A    between atoms: _252  and  _254
REMARK  103  A    between atoms: _254  and  _255
REMARK  104  A    between atoms: _254  and  _257
REMARK  105  A    between atoms: _257  and  _258
REMARK  106  A    between atoms: _258  and  _259
REMARK  107  A    between atoms: _262  and  _264
REMARK  108  A    between atoms: _264  and  _265
REMARK  109  A    between atoms: _264  and  _267
REMARK  110  A    between atoms: _267  and  _268
REMARK  111  A    between atoms: _271  and  _273
REMARK  112  A    between atoms: _273  and  _274
REMARK  113  A    between atoms: _273  and  _276
REMARK  114  A    between atoms: _276  and  _277
REMARK  115  A    between atoms: _280  and  _282
REMARK  116  A    between atoms: _282  and  _283
REMARK  117  A    between atoms: _282  and  _285
REMARK  118  A    between atoms: _285  and  _286
REMARK  119  A    between atoms: _286  and  _287
REMARK  120  A    between atoms: _292  and  _294
REMARK  121  A    between atoms: _294  and  _295
REMARK  122  A    between atoms: _294  and  _297
REMARK  123  A    between atoms: _297  and  _298
REMARK  124  A    between atoms: _301  and  _303
REMARK  125  A    between atoms: _303  and  _304
REMARK  126  A    between atoms: _303  and  _306
REMARK  127  A    between atoms: _306  and  _307
REMARK  128  A    between atoms: _310  and  _312
REMARK  129  A    between atoms: _312  and  _313
REMARK  130  A    between atoms: _312  and  _315
REMARK  131  A    between atoms: _315  and  _316
REMARK  132  A    between atoms: _316  and  _317
REMARK  133  A    between atoms: _322  and  _324
REMARK  134  A    between atoms: _324  and  _325
REMARK  135  A    between atoms: _327  and  _329
REMARK  136  A    between atoms: _329  and  _330
REMARK  137  A    between atoms: _329  and  _332
REMARK  138  A    between atoms: _332  and  _333
REMARK  139  A    between atoms: _336  and  _338
REMARK  140  A    between atoms: _338  and  _339
REMARK  141  A    between atoms: _338  and  _341
REMARK  142  A    between atoms: _341  and  _342
REMARK  143  A    between atoms: _345  and  _347
REMARK  144  A    between atoms: _347  and  _348
REMARK  145  A    between atoms: _347  and  _350
REMARK  146  A    between atoms: _350  and  _351
REMARK  147  A    between atoms: _356  and  _358
REMARK  148  A    between atoms: _358  and  _359
REMARK  149  A    between atoms: _358  and  _361
REMARK  150  A    between atoms: _361  and  _362
REMARK  151  A    between atoms: _365  and  _367
REMARK  152  A    between atoms: _367  and  _368
REMARK  153  A    between atoms: _367  and  _370
REMARK  154  A    between atoms: _370  and  _371
REMARK  155  A    between atoms: _373  and  _375
REMARK  156  A    between atoms: _375  and  _376
REMARK  157  A    between atoms: _375  and  _378
REMARK  158  A    between atoms: _378  and  _379
REMARK  159  A    between atoms: _379  and  _380
REMARK  160  A    between atoms: _385  and  _387
REMARK  161  A    between atoms: _387  and  _388
REMARK  162  A    between atoms: _387  and  _390
REMARK  163  A    between atoms: _390  and  _391
REMARK  164  A    between atoms: _394  and  _396
REMARK  165  A    between atoms: _396  and  _397
REMARK  166  A    between atoms: _396  and  _399
REMARK  167  A    between atoms: _402  and  _404
REMARK  168  A    between atoms: _404  and  _405
REMARK  169  A    between atoms: _404  and  _407
REMARK  170  A    between atoms: _407  and  _408
REMARK  171  A    between atoms: _408  and  _409
REMARK  172  A    between atoms: _409  and  _410
REMARK  173  A    between atoms: _419  and  _421
REMARK  174  A    between atoms: _421  and  _422
REMARK  175  A    between atoms: _421  and  _424
REMARK  176  A    between atoms: _424  and  _425
REMARK  177  A    between atoms: _428  and  _430
REMARK  178  A    between atoms: _430  and  _431
REMARK  179  A    between atoms: _430  and  _433
REMARK  180  A    between atoms: _433  and  _434
REMARK  181  A    between atoms: _444  and  _446
REMARK  182  A    between atoms: _446  and  _447
REMARK  183  A    between atoms: _446  and  _449
REMARK  184  A    between atoms: _449  and  _450
REMARK  185  A    between atoms: _454  and  _455
REMARK  186  A    between atoms: _460  and  _462
REMARK  187  A    between atoms: _462  and  _463
REMARK  188  A    between atoms: _462  and  _465
REMARK  189  A    between atoms: _465  and  _466
REMARK  190  A    between atoms: _472  and  _473
REMARK  191  A    between atoms: _478  and  _480
REMARK  192  A    between atoms: _480  and  _481
REMARK  193  A    between atoms: _483  and  _485
REMARK  194  A    between atoms: _485  and  _486
REMARK  195  A    between atoms: _485  and  _488
REMARK  196  A    between atoms: _488  and  _489
REMARK  197  A    between atoms: _492  and  _494
REMARK  198  A    between atoms: _494  and  _495
REMARK  199  A    between atoms: _494  and  _497
REMARK  200  A    between atoms: _497  and  _498
REMARK  201  A    between atoms: _498  and  _499
REMARK  202  A    between atoms: _499  and  _500
REMARK  203  A    between atoms: _500  and  _501
REMARK  204  A    between atoms: _505  and  _507
REMARK  205  A    between atoms: _507  and  _508
REMARK  206  A    between atoms: _507  and  _510
REMARK  207  A    between atoms: _513  and  _515
REMARK  208  A    between atoms: _515  and  _516
REMARK  209  A    between atoms: _519  and  _521
REMARK  210  A    between atoms: _521  and  _522
REMARK  211  A    between atoms: _521  and  _524
REMARK  212  A    between atoms: _524  and  _525
REMARK  213  A    between atoms: _528  and  _530
REMARK  214  A    between atoms: _530  and  _531
REMARK  215  A    between atoms: _530  and  _533
REMARK  216  A    between atoms: _533  and  _534
REMARK  217  A    between atoms: _540  and  _541
REMARK  218  A    between atoms: _546  and  _548
REMARK  219  A    between atoms: _548  and  _549
REMARK  220  A    between atoms: _548  and  _551
REMARK  221  A    between atoms: _551  and  _552
REMARK  222  A    between atoms: _558  and  _560
REMARK  223  A    between atoms: _560  and  _561
REMARK  224  A    between atoms: _560  and  _563
REMARK  225  A    between atoms: _563  and  _564
REMARK  226  A    between atoms: _567  and  _569
REMARK  227  A    between atoms: _569  and  _570
REMARK  228  A    between atoms: _572  and  _574
REMARK  229  A    between atoms: _574  and  _575
REMARK  230  A    between atoms: _574  and  _577
REMARK  231  A    between atoms: _577  and  _578
REMARK  232  A    between atoms: _581  and  _583
REMARK  233  A    between atoms: _583  and  _584
REMARK  234  A    between atoms: _583  and  _586
REMARK  235  A    between atoms: _586  and  _587
REMARK  236  A    between atoms: _593  and  _595
REMARK  237  A    between atoms: _595  and  _596
REMARK  238  A    between atoms: _595  and  _598
REMARK  239  A    between atoms: _598  and  _599
REMARK  240  A    between atoms: _599  and  _600
REMARK  241  A    between atoms: _605  and  _607
REMARK  242  A    between atoms: _607  and  _608
REMARK  243  A    between atoms: _607  and  _610
REMARK  244  A    between atoms: _610  and  _611
REMARK  245  A    between atoms: _614  and  _616
REMARK  246  A    between atoms: _616  and  _617
REMARK  247  A    between atoms: _616  and  _619
REMARK  248  A    between atoms: _619  and  _620
REMARK  249  A    between atoms: _622  and  _624
REMARK  250  A    between atoms: _624  and  _625
REMARK  251  A    between atoms: _624  and  _627
REMARK  252  A    between atoms: _627  and  _628
REMARK  253  A    between atoms: _634  and  _636
REMARK  254  A    between atoms: _636  and  _637
REMARK  255  A    between atoms: _636  and  _639
REMARK  256  A    between atoms: _639  and  _640
REMARK  257  A    between atoms: _645  and  _646
REMARK  258  A    between atoms: _648  and  _650
REMARK  259  A    between atoms: _650  and  _651
REMARK  260  A    between atoms: _650  and  _653
REMARK  261  A    between atoms: _653  and  _654
REMARK                            x       y       z     vdW  Elec       q    Type
REMARK                         _______ _______ _______ _____ _____    ______ ____
ROOT
ATOM      1  O   HOH     1      18.617  -9.628 -44.231  0.00  0.00    +0.000 OA
ENDROOT
TORSDOF 0
REMARK  Name = ../refined-set-2016/4idn/4idn_pocket.pdb
REMARK  261 active torsions:
REMARK  status: ('A' for Active; 'I' for Inactive)
REMARK    1  A    between atoms: _1  and  _3
REMARK    2  A    between atoms: _3  and  _4
REMARK    3  A    between atoms: _3  and  _6
REMARK    4  A    between atoms: _9  and  _11
REMARK    5  A    between atoms: _11  and  _12
REMARK    6  A    between atoms: _15  and  _17
REMARK    7  A    between atoms: _17  and  _18
REMARK    8  A    between atoms: _20  and  _22
REMARK    9  A    between atoms: _22  and  _23
REMARK   10  A    between atoms: _26  and  _28
REMARK   11  A    between atoms: _28  and  _29
REMARK   12  A    between atoms: _28  and  _31
REMARK   13  A    between atoms: _31  and  _32
REMARK   14  A    between atoms: _38  and  _40
REMARK   15  A    between atoms: _40  and  _41
REMARK   16  A    between atoms: _40  and  _43
REMARK   17  A    between atoms: _43  and  _44
REMARK   18  A    between atoms: _44  and  _45
REMARK   19  A    between atoms: _45  and  _46
REMARK   20  A    between atoms: _55  and  _57
REMARK   21  A    between atoms: _57  and  _58
REMARK   22  A    between atoms: _57  and  _60
REMARK   23  A    between atoms: _60  and  _61
REMARK   24  A    between atoms: _61  and  _62
REMARK   25  A    between atoms: _62  and  _63
REMARK   26  A    between atoms: _63  and  _64
REMARK   27  A    between atoms: _68  and  _70
REMARK   28  A    between atoms: _70  and  _71
REMARK   29  A    between atoms: _73  and  _75
REMARK   30  A    between atoms: _75  and  _76
REMARK   31  A    between atoms: _75  and  _78
REMARK   32  A    between atoms: _78  and  _79
REMARK   33  A    between atoms: _79  and  _80
REMARK   34  A    between atoms: _80  and  _81
REMARK   35  A    between atoms: _81  and  _82
REMARK   36  A    between atoms: _86  and  _88
REMARK   37  A    between atoms: _88  and  _89
REMARK   38  A    between atoms: _88  and  _91
REMARK   39  A    between atoms: _91  and  _92
REMARK   40  A    between atoms: _94  and  _96
REMARK   41  A    between atoms: _96  and  _97
REMARK   42  A    between atoms: _96  and  _99
REMARK   43  A    between atoms: _99  and  _100
REMARK   44  A    between atoms: _106  and  _108
REMARK   45  A    between atoms: _108  and  _109
REMARK   46  A    between atoms: _108  and  _111
REMARK   47  A    between atoms: _111  and  _112
REMARK   48  A    between atoms: _115  and  _117
REMARK   49  A    between atoms: _117  and  _118
REMARK   50  A    between atoms: _117  and  _120
REMARK   51  A    between atoms: _120  and  _121
REMARK   52  A    between atoms: _121  and  _122
REMARK   53  A    between atoms: _124  and  _126
REMARK   54  A    between atoms: _126  and  _127
REMARK   55  A    between atoms: _126  and  _129
REMARK   56  A    between atoms: _129  and  _130
REMARK   57  A    between atoms: _133  and  _135
REMARK   58  A    between atoms: _135  and  _136
REMARK   59  A    between atoms: _135  and  _138
REMARK   60  A    between atoms: _138  and  _139
REMARK   61  A    between atoms: _145  and  _147
REMARK   62  A    between atoms: _147  and  _148
REMARK   63  A    between atoms: _147  and  _150
REMARK   64  A    between atoms: _150  and  _151
REMARK   65  A    between atoms: _154  and  _156
REMARK   66  A    between atoms: _156  and  _157
REMARK   67  A    between atoms: _156  and  _159
REMARK   68  A    between atoms: _159  and  _160
REMARK   69  A    between atoms: _166  and  _168
REMARK   70  A    between atoms: _168  and  _169
REMARK   71  A    between atoms: _168  and  _171
REMARK   72  A    between atoms: _171  and  _172
REMARK   73  A    between atoms: _174  and  _176
REMARK   74  A    between atoms: _176  and  _177
REMARK   75  A    between atoms: _176  and  _179
REMARK   76  A    between atoms: _179  and  _180
REMARK   77  A    between atoms: _190  and  _192
REMARK   78  A    between atoms: _192  and  _193
REMARK   79  A    between atoms: _192  and  _195
REMARK   80  A    between atoms: _195  and  _196
REMARK   81  A    between atoms: _196  and  _197
REMARK   82  A    between atoms: _197  and  _198
REMARK   83  A    between atoms: _207  and  _209
REMARK   84  A    between atoms: _209  and  _210
REMARK   85  A    between atoms: _212  and  _214
REMARK   86  A    between atoms: _214  and  _215
REMARK   87  A    between atoms: _217  and  _219
REMARK   88  A    between atoms: _219  and  _220
REMARK   89  A    between atoms: _219  and  _222
REMARK   90  A    between atoms: _222  and  _223
REMARK   91  A    between atoms: _225  and  _227
REMARK   92  A    between atoms: _227  and  _228
REMARK   93  A    between atoms: _227  and  _230
REMARK   94  A    between atoms: _230  and  _231
REMARK   95  A    between atoms: _231  and  _232
REMARK   96  A    between atoms: _235  and  _237
REMARK   97  A    between atoms: _237  and  _238
REMARK   98  A    between atoms: _237  and  _240
REMARK   99  A    between atoms: _240  and  _241
REMARK  100  A    between atoms: _241  and  _242
REMARK  101  A    between atoms: _242  and  _243
REMARK  102  A    between atoms: _252  and  _254
REMARK  103  A    between atoms: _254  and  _255
REMARK  104  A    between atoms: _254  and  _257
REMARK  105  A    between atoms: _257  and  _258
REMARK  106  A    between atoms: _258  and  _259
REMARK  107  A    between atoms: _262  and  _264
REMARK  108  A    between atoms: _264  and  _265
REMARK  109  A    between atoms: _264  and  _267
REMARK  110  A    between atoms: _267  and  _268
REMARK  111  A    between atoms: _271  and  _273
REMARK  112  A    between atoms: _273  and  _274
REMARK  113  A    between atoms: _273  and  _276
REMARK  114  A    between atoms: _276  and  _277
REMARK  115  A    between atoms: _280  and  _282
REMARK  116  A    between atoms: _282  and  _283
REMARK  117  A    between atoms: _282  and  _285
REMARK  118  A    between atoms: _285  and  _286
REMARK  119  A    between atoms: _286  and  _287
REMARK  120  A    between atoms: _292  and  _294
REMARK  121  A    between atoms: _294  and  _295
REMARK  122  A    between atoms: _294  and  _297
REMARK  123  A    between atoms: _297  and  _298
REMARK  124  A    between atoms: _301  and  _303
REMARK  125  A    between atoms: _303  and  _304
REMARK  126  A    between atoms: _303  and  _306
REMARK  127  A    between atoms: _306  and  _307
REMARK  128  A    between atoms: _310  and  _312
REMARK  129  A    between atoms: _312  and  _313
REMARK  130  A    between atoms: _312  and  _315
REMARK  131  A    between atoms: _315  and  _316
REMARK  132  A    between atoms: _316  and  _317
REMARK  133  A    between atoms: _322  and  _324
REMARK  134  A    between atoms: _324  and  _325
REMARK  135  A    between atoms: _327  and  _329
REMARK  136  A    between atoms: _329  and  _330
REMARK  137  A    between atoms: _329  and  _332
REMARK  138  A    between atoms: _332  and  _333
REMARK  139  A    between atoms: _336  and  _338
REMARK  140  A    between atoms: _338  and  _339
REMARK  141  A    between atoms: _338  and  _341
REMARK  142  A    between atoms: _341  and  _342
REMARK  143  A    between atoms: _345  and  _347
REMARK  144  A    between atoms: _347  and  _348
REMARK  145  A    between atoms: _347  and  _350
REMARK  146  A    between atoms: _350  and  _351
REMARK  147  A    between atoms: _356  and  _358
REMARK  148  A    between atoms: _358  and  _359
REMARK  149  A    between atoms: _358  and  _361
REMARK  150  A    between atoms: _361  and  _362
REMARK  151  A    between atoms: _365  and  _367
REMARK  152  A    between atoms: _367  and  _368
REMARK  153  A    between atoms: _367  and  _370
REMARK  154  A    between atoms: _370  and  _371
REMARK  155  A    between atoms: _373  and  _375
REMARK  156  A    between atoms: _375  and  _376
REMARK  157  A    between atoms: _375  and  _378
REMARK  158  A    between atoms: _378  and  _379
REMARK  159  A    between atoms: _379  and  _380
REMARK  160  A    between atoms: _385  and  _387
REMARK  161  A    between atoms: _387  and  _388
REMARK  162  A    between atoms: _387  and  _390
REMARK  163  A    between atoms: _390  and  _391
REMARK  164  A    between atoms: _394  and  _396
REMARK  165  A    between atoms: _396  and  _397
REMARK  166  A    between atoms: _396  and  _399
REMARK  167  A    between atoms: _402  and  _404
REMARK  168  A    between atoms: _404  and  _405
REMARK  169  A    between atoms: _404  and  _407
REMARK  170  A    between atoms: _407  and  _408
REMARK  171  A    between atoms: _408  and  _409
REMARK  172  A    between atoms: _409  and  _410
REMARK  173  A    between atoms: _419  and  _421
REMARK  174  A    between atoms: _421  and  _422
REMARK  175  A    between atoms: _421  and  _424
REMARK  176  A    between atoms: _424  and  _425
REMARK  177  A    between atoms: _428  and  _430
REMARK  178  A    between atoms: _430  and  _431
REMARK  179  A    between atoms: _430  and  _433
REMARK  180  A    between atoms: _433  and  _434
REMARK  181  A    between atoms: _444  and  _446
REMARK  182  A    between atoms: _446  and  _447
REMARK  183  A    between atoms: _446  and  _449
REMARK  184  A    between atoms: _449  and  _450
REMARK  185  A    between atoms: _454  and  _455
REMARK  186  A    between atoms: _460  and  _462
REMARK  187  A    between atoms: _462  and  _463
REMARK  188  A    between atoms: _462  and  _465
REMARK  189  A    between atoms: _465  and  _466
REMARK  190  A    between atoms: _472  and  _473
REMARK  191  A    between atoms: _478  and  _480
REMARK  192  A    between atoms: _480  and  _481
REMARK  193  A    between atoms: _483  and  _485
REMARK  194  A    between atoms: _485  and  _486
REMARK  195  A    between atoms: _485  and  _488
REMARK  196  A    between atoms: _488  and  _489
REMARK  197  A    between atoms: _492  and  _494
REMARK  198  A    between atoms: _494  and  _495
REMARK  199  A    between atoms: _494  and  _497
REMARK  200  A    between atoms: _497  and  _498
REMARK  201  A    between atoms: _498  and  _499
REMARK  202  A    between atoms: _499  and  _500
REMARK  203  A    between atoms: _500  and  _501
REMARK  204  A    between atoms: _505  and  _507
REMARK  205  A    between atoms: _507  and  _508
REMARK  206  A    between atoms: _507  and  _510
REMARK  207  A    between atoms: _513  and  _515
REMARK  208  A    between atoms: _515  and  _516
REMARK  209  A    between atoms: _519  and  _521
REMARK  210  A    between atoms: _521  and  _522
REMARK  211  A    between atoms: _521  and  _524
REMARK  212  A    between atoms: _524  and  _525
REMARK  213  A    between atoms: _528  and  _530
REMARK  214  A    between atoms: _530  and  _531
REMARK  215  A    between atoms: _530  and  _533
REMARK  216  A    between atoms: _533  and  _534
REMARK  217  A    between atoms: _540  and  _541
REMARK  218  A    between atoms: _546  and  _548
REMARK  219  A    between atoms: _548  and  _549
REMARK  220  A    between atoms: _548  and  _551
REMARK  221  A    between atoms: _551  and  _552
REMARK  222  A    between atoms: _558  and  _560
REMARK  223  A    between atoms: _560  and  _561
REMARK  224  A    between atoms: _560  and  _563
REMARK  225  A    between atoms: _563  and  _564
REMARK  226  A    between atoms: _567  and  _569
REMARK  227  A    between atoms: _569  and  _570
REMARK  228  A    between atoms: _572  and  _574
REMARK  229  A    between atoms: _574  and  _575
REMARK  230  A    between atoms: _574  and  _577
REMARK  231  A    between atoms: _577  and  _578
REMARK  232  A    between atoms: _581  and  _583
REMARK  233  A    between atoms: _583  and  _584
REMARK  234  A    between atoms: _583  and  _586
REMARK  235  A    between atoms: _586  and  _587
REMARK  236  A    between atoms: _593  and  _595
REMARK  237  A    between atoms: _595  and  _596
REMARK  238  A    between atoms: _595  and  _598
REMARK  239  A    between atoms: _598  and  _599
REMARK  240  A    between atoms: _599  and  _600
REMARK  241  A    between atoms: _605  and  _607
REMARK  242  A    between atoms: _607  and  _608
REMARK  243  A    between atoms: _607  and  _610
REMARK  244  A    between atoms: _610  and  _611
REMARK  245  A    between atoms: _614  and  _616
REMARK  246  A    between atoms: _616  and  _617
REMARK  247  A    between atoms: _616  and  _619
REMARK  248  A    between atoms: _619  and  _620
REMARK  249  A    between atoms: _622  and  _624
REMARK  250  A    between atoms: _624  and  _625
REMARK  251  A    between atoms: _624  and  _627
REMARK  252  A    between atoms: _627  and  _628
REMARK  253  A    between atoms: _634  and  _636
REMARK  254  A    between atoms: _636  and  _637
REMARK  255  A    between atoms: _636  and  _639
REMARK  256  A    between atoms: _639  and  _640
REMARK  257  A    between atoms: _645  and  _646
REMARK  258  A    between atoms: _648  and  _650
REMARK  259  A    between atoms: _650  and  _651
REMARK  260  A    between atoms: _650  and  _653
REMARK  261  A    between atoms: _653  and  _654
REMARK                            x       y       z     vdW  Elec       q    Type
REMARK                         _______ _______ _______ _____ _____    ______ ____
ROOT
ATOM      1  O   HOH     1      14.178   2.018 -47.169  0.00  0.00    +0.000 OA
ENDROOT
TORSDOF 0
REMARK  Name = ../refined-set-2016/4idn/4idn_pocket.pdb
REMARK  261 active torsions:
REMARK  status: ('A' for Active; 'I' for Inactive)
REMARK    1  A    between atoms: _1  and  _3
REMARK    2  A    between atoms: _3  and  _4
REMARK    3  A    between atoms: _3  and  _6
REMARK    4  A    between atoms: _9  and  _11
REMARK    5  A    between atoms: _11  and  _12
REMARK    6  A    between atoms: _15  and  _17
REMARK    7  A    between atoms: _17  and  _18
REMARK    8  A    between atoms: _20  and  _22
REMARK    9  A    between atoms: _22  and  _23
REMARK   10  A    between atoms: _26  and  _28
REMARK   11  A    between atoms: _28  and  _29
REMARK   12  A    between atoms: _28  and  _31
REMARK   13  A    between atoms: _31  and  _32
REMARK   14  A    between atoms: _38  and  _40
REMARK   15  A    between atoms: _40  and  _41
REMARK   16  A    between atoms: _40  and  _43
REMARK   17  A    between atoms: _43  and  _44
REMARK   18  A    between atoms: _44  and  _45
REMARK   19  A    between atoms: _45  and  _46
REMARK   20  A    between atoms: _55  and  _57
REMARK   21  A    between atoms: _57  and  _58
REMARK   22  A    between atoms: _57  and  _60
REMARK   23  A    between atoms: _60  and  _61
REMARK   24  A    between atoms: _61  and  _62
REMARK   25  A    between atoms: _62  and  _63
REMARK   26  A    between atoms: _63  and  _64
REMARK   27  A    between atoms: _68  and  _70
REMARK   28  A    between atoms: _70  and  _71
REMARK   29  A    between atoms: _73  and  _75
REMARK   30  A    between atoms: _75  and  _76
REMARK   31  A    between atoms: _75  and  _78
REMARK   32  A    between atoms: _78  and  _79
REMARK   33  A    between atoms: _79  and  _80
REMARK   34  A    between atoms: _80  and  _81
REMARK   35  A    between atoms: _81  and  _82
REMARK   36  A    between atoms: _86  and  _88
REMARK   37  A    between atoms: _88  and  _89
REMARK   38  A    between atoms: _88  and  _91
REMARK   39  A    between atoms: _91  and  _92
REMARK   40  A    between atoms: _94  and  _96
REMARK   41  A    between atoms: _96  and  _97
REMARK   42  A    between atoms: _96  and  _99
REMARK   43  A    between atoms: _99  and  _100
REMARK   44  A    between atoms: _106  and  _108
REMARK   45  A    between atoms: _108  and  _109
REMARK   46  A    between atoms: _108  and  _111
REMARK   47  A    between atoms: _111  and  _112
REMARK   48  A    between atoms: _115  and  _117
REMARK   49  A    between atoms: _117  and  _118
REMARK   50  A    between atoms: _117  and  _120
REMARK   51  A    between atoms: _120  and  _121
REMARK   52  A    between atoms: _121  and  _122
REMARK   53  A    between atoms: _124  and  _126
REMARK   54  A    between atoms: _126  and  _127
REMARK   55  A    between atoms: _126  and  _129
REMARK   56  A    between atoms: _129  and  _130
REMARK   57  A    between atoms: _133  and  _135
REMARK   58  A    between atoms: _135  and  _136
REMARK   59  A    between atoms: _135  and  _138
REMARK   60  A    between atoms: _138  and  _139
REMARK   61  A    between atoms: _145  and  _147
REMARK   62  A    between atoms: _147  and  _148
REMARK   63  A    between atoms: _147  and  _150
REMARK   64  A    between atoms: _150  and  _151
REMARK   65  A    between atoms: _154  and  _156
REMARK   66  A    between atoms: _156  and  _157
REMARK   67  A    between atoms: _156  and  _159
REMARK   68  A    between atoms: _159  and  _160
REMARK   69  A    between atoms: _166  and  _168
REMARK   70  A    between atoms: _168  and  _169
REMARK   71  A    between atoms: _168  and  _171
REMARK   72  A    between atoms: _171  and  _172
REMARK   73  A    between atoms: _174  and  _176
REMARK   74  A    between atoms: _176  and  _177
REMARK   75  A    between atoms: _176  and  _179
REMARK   76  A    between atoms: _179  and  _180
REMARK   77  A    between atoms: _190  and  _192
REMARK   78  A    between atoms: _192  and  _193
REMARK   79  A    between atoms: _192  and  _195
REMARK   80  A    between atoms: _195  and  _196
REMARK   81  A    between atoms: _196  and  _197
REMARK   82  A    between atoms: _197  and  _198
REMARK   83  A    between atoms: _207  and  _209
REMARK   84  A    between atoms: _209  and  _210
REMARK   85  A    between atoms: _212  and  _214
REMARK   86  A    between atoms: _214  and  _215
REMARK   87  A    between atoms: _217  and  _219
REMARK   88  A    between atoms: _219  and  _220
REMARK   89  A    between atoms: _219  and  _222
REMARK   90  A    between atoms: _222  and  _223
REMARK   91  A    between atoms: _225  and  _227
REMARK   92  A    between atoms: _227  and  _228
REMARK   93  A    between atoms: _227  and  _230
REMARK   94  A    between atoms: _230  and  _231
REMARK   95  A    between atoms: _231  and  _232
REMARK   96  A    between atoms: _235  and  _237
REMARK   97  A    between atoms: _237  and  _238
REMARK   98  A    between atoms: _237  and  _240
REMARK   99  A    between atoms: _240  and  _241
REMARK  100  A    between atoms: _241  and  _242
REMARK  101  A    between atoms: _242  and  _243
REMARK  102  A    between atoms: _252  and  _254
REMARK  103  A    between atoms: _254  and  _255
REMARK  104  A    between atoms: _254  and  _257
REMARK  105  A    between atoms: _257  and  _258
REMARK  106  A    between atoms: _258  and  _259
REMARK  107  A    between atoms: _262  and  _264
REMARK  108  A    between atoms: _264  and  _265
REMARK  109  A    between atoms: _264  and  _267
REMARK  110  A    between atoms: _267  and  _268
REMARK  111  A    between atoms: _271  and  _273
REMARK  112  A    between atoms: _273  and  _274
REMARK  113  A    between atoms: _273  and  _276
REMARK  114  A    between atoms: _276  and  _277
REMARK  115  A    between atoms: _280  and  _282
REMARK  116  A    between atoms: _282  and  _283
REMARK  117  A    between atoms: _282  and  _285
REMARK  118  A    between atoms: _285  and  _286
REMARK  119  A    between atoms: _286  and  _287
REMARK  120  A    between atoms: _292  and  _294
REMARK  121  A    between atoms: _294  and  _295
REMARK  122  A    between atoms: _294  and  _297
REMARK  123  A    between atoms: _297  and  _298
REMARK  124  A    between atoms: _301  and  _303
REMARK  125  A    between atoms: _303  and  _304
REMARK  126  A    between atoms: _303  and  _306
REMARK  127  A    between atoms: _306  and  _307
REMARK  128  A    between atoms: _310  and  _312
REMARK  129  A    between atoms: _312  and  _313
REMARK  130  A    between atoms: _312  and  _315
REMARK  131  A    between atoms: _315  and  _316
REMARK  132  A    between atoms: _316  and  _317
REMARK  133  A    between atoms: _322  and  _324
REMARK  134  A    between atoms: _324  and  _325
REMARK  135  A    between atoms: _327  and  _329
REMARK  136  A    between atoms: _329  and  _330
REMARK  137  A    between atoms: _329  and  _332
REMARK  138  A    between atoms: _332  and  _333
REMARK  139  A    between atoms: _336  and  _338
REMARK  140  A    between atoms: _338  and  _339
REMARK  141  A    between atoms: _338  and  _341
REMARK  142  A    between atoms: _341  and  _342
REMARK  143  A    between atoms: _345  and  _347
REMARK  144  A    between atoms: _347  and  _348
REMARK  145  A    between atoms: _347  and  _350
REMARK  146  A    between atoms: _350  and  _351
REMARK  147  A    between atoms: _356  and  _358
REMARK  148  A    between atoms: _358  and  _359
REMARK  149  A    between atoms: _358  and  _361
REMARK  150  A    between atoms: _361  and  _362
REMARK  151  A    between atoms: _365  and  _367
REMARK  152  A    between atoms: _367  and  _368
REMARK  153  A    between atoms: _367  and  _370
REMARK  154  A    between atoms: _370  and  _371
REMARK  155  A    between atoms: _373  and  _375
REMARK  156  A    between atoms: _375  and  _376
REMARK  157  A    between atoms: _375  and  _378
REMARK  158  A    between atoms: _378  and  _379
REMARK  159  A    between atoms: _379  and  _380
REMARK  160  A    between atoms: _385  and  _387
REMARK  161  A    between atoms: _387  and  _388
REMARK  162  A    between atoms: _387  and  _390
REMARK  163  A    between atoms: _390  and  _391
REMARK  164  A    between atoms: _394  and  _396
REMARK  165  A    between atoms: _396  and  _397
REMARK  166  A    between atoms: _396  and  _399
REMARK  167  A    between atoms: _402  and  _404
REMARK  168  A    between atoms: _404  and  _405
REMARK  169  A    between atoms: _404  and  _407
REMARK  170  A    between atoms: _407  and  _408
REMARK  171  A    between atoms: _408  and  _409
REMARK  172  A    between atoms: _409  and  _410
REMARK  173  A    between atoms: _419  and  _421
REMARK  174  A    between atoms: _421  and  _422
REMARK  175  A    between atoms: _421  and  _424
REMARK  176  A    between atoms: _424  and  _425
REMARK  177  A    between atoms: _428  and  _430
REMARK  178  A    between atoms: _430  and  _431
REMARK  179  A    between atoms: _430  and  _433
REMARK  180  A    between atoms: _433  and  _434
REMARK  181  A    between atoms: _444  and  _446
REMARK  182  A    between atoms: _446  and  _447
REMARK  183  A    between atoms: _446  and  _449
REMARK  184  A    between atoms: _449  and  _450
REMARK  185  A    between atoms: _454  and  _455
REMARK  186  A    between atoms: _460  and  _462
REMARK  187  A    between atoms: _462  and  _463
REMARK  188  A    between atoms: _462  and  _465
REMARK  189  A    between atoms: _465  and  _466
REMARK  190  A    between atoms: _472  and  _473
REMARK  191  A    between atoms: _478  and  _480
REMARK  192  A    between atoms: _480  and  _481
REMARK  193  A    between atoms: _483  and  _485
REMARK  194  A    between atoms: _485  and  _486
REMARK  195  A    between atoms: _485  and  _488
REMARK  196  A    between atoms: _488  and  _489
REMARK  197  A    between atoms: _492  and  _494
REMARK  198  A    between atoms: _494  and  _495
REMARK  199  A    between atoms: _494  and  _497
REMARK  200  A    between atoms: _497  and  _498
REMARK  201  A    between atoms: _498  and  _499
REMARK  202  A    between atoms: _499  and  _500
REMARK  203  A    between atoms: _500  and  _501
REMARK  204  A    between atoms: _505  and  _507
REMARK  205  A    between atoms: _507  and  _508
REMARK  206  A    between atoms: _507  and  _510
REMARK  207  A    between atoms: _513  and  _515
REMARK  208  A    between atoms: _515  and  _516
REMARK  209  A    between atoms: _519  and  _521
REMARK  210  A    between atoms: _521  and  _522
REMARK  211  A    between atoms: _521  and  _524
REMARK  212  A    between atoms: _524  and  _525
REMARK  213  A    between atoms: _528  and  _530
REMARK  214  A    between atoms: _530  and  _531
REMARK  215  A    between atoms: _530  and  _533
REMARK  216  A    between atoms: _533  and  _534
REMARK  217  A    between atoms: _540  and  _541
REMARK  218  A    between atoms: _546  and  _548
REMARK  219  A    between atoms: _548  and  _549
REMARK  220  A    between atoms: _548  and  _551
REMARK  221  A    between atoms: _551  and  _552
REMARK  222  A    between atoms: _558  and  _560
REMARK  223  A    between atoms: _560  and  _561
REMARK  224  A    between atoms: _560  and  _563
REMARK  225  A    between atoms: _563  and  _564
REMARK  226  A    between atoms: _567  and  _569
REMARK  227  A    between atoms: _569  and  _570
REMARK  228  A    between atoms: _572  and  _574
REMARK  229  A    between atoms: _574  and  _575
REMARK  230  A    between atoms: _574  and  _577
REMARK  231  A    between atoms: _577  and  _578
REMARK  232  A    between atoms: _581  and  _583
REMARK  233  A    between atoms: _583  and  _584
REMARK  234  A    between atoms: _583  and  _586
REMARK  235  A    between atoms: _586  and  _587
REMARK  236  A    between atoms: _593  and  _595
REMARK  237  A    between atoms: _595  and  _596
REMARK  238  A    between atoms: _595  and  _598
REMARK  239  A    between atoms: _598  and  _599
REMARK  240  A    between atoms: _599  and  _600
REMARK  241  A    between atoms: _605  and  _607
REMARK  242  A    between atoms: _607  and  _608
REMARK  243  A    between atoms: _607  and  _610
REMARK  244  A    between atoms: _610  and  _611
REMARK  245  A    between atoms: _614  and  _616
REMARK  246  A    between atoms: _616  and  _617
REMARK  247  A    between atoms: _616  and  _619
REMARK  248  A    between atoms: _619  and  _620
REMARK  249  A    between atoms: _622  and  _624
REMARK  250  A    between atoms: _624  and  _625
REMARK  251  A    between atoms: _624  and  _627
REMARK  252  A    between atoms: _627  and  _628
REMARK  253  A    between atoms: _634  and  _636
REMARK  254  A    between atoms: _636  and  _637
REMARK  255  A    between atoms: _636  and  _639
REMARK  256  A    between atoms: _639  and  _640
REMARK  257  A    between atoms: _645  and  _646
REMARK  258  A    between atoms: _648  and  _650
REMARK  259  A    between atoms: _650  and  _651
REMARK  260  A    between atoms: _650  and  _653
REMARK  261  A    between atoms: _653  and  _654
REMARK                            x       y       z     vdW  Elec       q    Type
REMARK                         _______ _______ _______ _____ _____    ______ ____
ROOT
ATOM      1  O   HOH     1      28.415   7.948 -52.290  0.00  0.00    +0.000 OA
ENDROOT
TORSDOF 0
REMARK  Name = ../refined-set-2016/4idn/4idn_pocket.pdb
REMARK  261 active torsions:
REMARK  status: ('A' for Active; 'I' for Inactive)
REMARK    1  A    between atoms: _1  and  _3
REMARK    2  A    between atoms: _3  and  _4
REMARK    3  A    between atoms: _3  and  _6
REMARK    4  A    between atoms: _9  and  _11
REMARK    5  A    between atoms: _11  and  _12
REMARK    6  A    between atoms: _15  and  _17
REMARK    7  A    between atoms: _17  and  _18
REMARK    8  A    between atoms: _20  and  _22
REMARK    9  A    between atoms: _22  and  _23
REMARK   10  A    between atoms: _26  and  _28
REMARK   11  A    between atoms: _28  and  _29
REMARK   12  A    between atoms: _28  and  _31
REMARK   13  A    between atoms: _31  and  _32
REMARK   14  A    between atoms: _38  and  _40
REMARK   15  A    between atoms: _40  and  _41
REMARK   16  A    between atoms: _40  and  _43
REMARK   17  A    between atoms: _43  and  _44
REMARK   18  A    between atoms: _44  and  _45
REMARK   19  A    between atoms: _45  and  _46
REMARK   20  A    between atoms: _55  and  _57
REMARK   21  A    between atoms: _57  and  _58
REMARK   22  A    between atoms: _57  and  _60
REMARK   23  A    between atoms: _60  and  _61
REMARK   24  A    between atoms: _61  and  _62
REMARK   25  A    between atoms: _62  and  _63
REMARK   26  A    between atoms: _63  and  _64
REMARK   27  A    between atoms: _68  and  _70
REMARK   28  A    between atoms: _70  and  _71
REMARK   29  A    between atoms: _73  and  _75
REMARK   30  A    between atoms: _75  and  _76
REMARK   31  A    between atoms: _75  and  _78
REMARK   32  A    between atoms: _78  and  _79
REMARK   33  A    between atoms: _79  and  _80
REMARK   34  A    between atoms: _80  and  _81
REMARK   35  A    between atoms: _81  and  _82
REMARK   36  A    between atoms: _86  and  _88
REMARK   37  A    between atoms: _88  and  _89
REMARK   38  A    between atoms: _88  and  _91
REMARK   39  A    between atoms: _91  and  _92
REMARK   40  A    between atoms: _94  and  _96
REMARK   41  A    between atoms: _96  and  _97
REMARK   42  A    between atoms: _96  and  _99
REMARK   43  A    between atoms: _99  and  _100
REMARK   44  A    between atoms: _106  and  _108
REMARK   45  A    between atoms: _108  and  _109
REMARK   46  A    between atoms: _108  and  _111
REMARK   47  A    between atoms: _111  and  _112
REMARK   48  A    between atoms: _115  and  _117
REMARK   49  A    between atoms: _117  and  _118
REMARK   50  A    between atoms: _117  and  _120
REMARK   51  A    between atoms: _120  and  _121
REMARK   52  A    between atoms: _121  and  _122
REMARK   53  A    between atoms: _124  and  _126
REMARK   54  A    between atoms: _126  and  _127
REMARK   55  A    between atoms: _126  and  _129
REMARK   56  A    between atoms: _129  and  _130
REMARK   57  A    between atoms: _133  and  _135
REMARK   58  A    between atoms: _135  and  _136
REMARK   59  A    between atoms: _135  and  _138
REMARK   60  A    between atoms: _138  and  _139
REMARK   61  A    between atoms: _145  and  _147
REMARK   62  A    between atoms: _147  and  _148
REMARK   63  A    between atoms: _147  and  _150
REMARK   64  A    between atoms: _150  and  _151
REMARK   65  A    between atoms: _154  and  _156
REMARK   66  A    between atoms: _156  and  _157
REMARK   67  A    between atoms: _156  and  _159
REMARK   68  A    between atoms: _159  and  _160
REMARK   69  A    between atoms: _166  and  _168
REMARK   70  A    between atoms: _168  and  _169
REMARK   71  A    between atoms: _168  and  _171
REMARK   72  A    between atoms: _171  and  _172
REMARK   73  A    between atoms: _174  and  _176
REMARK   74  A    between atoms: _176  and  _177
REMARK   75  A    between atoms: _176  and  _179
REMARK   76  A    between atoms: _179  and  _180
REMARK   77  A    between atoms: _190  and  _192
REMARK   78  A    between atoms: _192  and  _193
REMARK   79  A    between atoms: _192  and  _195
REMARK   80  A    between atoms: _195  and  _196
REMARK   81  A    between atoms: _196  and  _197
REMARK   82  A    between atoms: _197  and  _198
REMARK   83  A    between atoms: _207  and  _209
REMARK   84  A    between atoms: _209  and  _210
REMARK   85  A    between atoms: _212  and  _214
REMARK   86  A    between atoms: _214  and  _215
REMARK   87  A    between atoms: _217  and  _219
REMARK   88  A    between atoms: _219  and  _220
REMARK   89  A    between atoms: _219  and  _222
REMARK   90  A    between atoms: _222  and  _223
REMARK   91  A    between atoms: _225  and  _227
REMARK   92  A    between atoms: _227  and  _228
REMARK   93  A    between atoms: _227  and  _230
REMARK   94  A    between atoms: _230  and  _231
REMARK   95  A    between atoms: _231  and  _232
REMARK   96  A    between atoms: _235  and  _237
REMARK   97  A    between atoms: _237  and  _238
REMARK   98  A    between atoms: _237  and  _240
REMARK   99  A    between atoms: _240  and  _241
REMARK  100  A    between atoms: _241  and  _242
REMARK  101  A    between atoms: _242  and  _243
REMARK  102  A    between atoms: _252  and  _254
REMARK  103  A    between atoms: _254  and  _255
REMARK  104  A    between atoms: _254  and  _257
REMARK  105  A    between atoms: _257  and  _258
REMARK  106  A    between atoms: _258  and  _259
REMARK  107  A    between atoms: _262  and  _264
REMARK  108  A    between atoms: _264  and  _265
REMARK  109  A    between atoms: _264  and  _267
REMARK  110  A    between atoms: _267  and  _268
REMARK  111  A    between atoms: _271  and  _273
REMARK  112  A    between atoms: _273  and  _274
REMARK  113  A    between atoms: _273  and  _276
REMARK  114  A    between atoms: _276  and  _277
REMARK  115  A    between atoms: _280  and  _282
REMARK  116  A    between atoms: _282  and  _283
REMARK  117  A    between atoms: _282  and  _285
REMARK  118  A    between atoms: _285  and  _286
REMARK  119  A    between atoms: _286  and  _287
REMARK  120  A    between atoms: _292  and  _294
REMARK  121  A    between atoms: _294  and  _295
REMARK  122  A    between atoms: _294  and  _297
REMARK  123  A    between atoms: _297  and  _298
REMARK  124  A    between atoms: _301  and  _303
REMARK  125  A    between atoms: _303  and  _304
REMARK  126  A    between atoms: _303  and  _306
REMARK  127  A    between atoms: _306  and  _307
REMARK  128  A    between atoms: _310  and  _312
REMARK  129  A    between atoms: _312  and  _313
REMARK  130  A    between atoms: _312  and  _315
REMARK  131  A    between atoms: _315  and  _316
REMARK  132  A    between atoms: _316  and  _317
REMARK  133  A    between atoms: _322  and  _324
REMARK  134  A    between atoms: _324  and  _325
REMARK  135  A    between atoms: _327  and  _329
REMARK  136  A    between atoms: _329  and  _330
REMARK  137  A    between atoms: _329  and  _332
REMARK  138  A    between atoms: _332  and  _333
REMARK  139  A    between atoms: _336  and  _338
REMARK  140  A    between atoms: _338  and  _339
REMARK  141  A    between atoms: _338  and  _341
REMARK  142  A    between atoms: _341  and  _342
REMARK  143  A    between atoms: _345  and  _347
REMARK  144  A    between atoms: _347  and  _348
REMARK  145  A    between atoms: _347  and  _350
REMARK  146  A    between atoms: _350  and  _351
REMARK  147  A    between atoms: _356  and  _358
REMARK  148  A    between atoms: _358  and  _359
REMARK  149  A    between atoms: _358  and  _361
REMARK  150  A    between atoms: _361  and  _362
REMARK  151  A    between atoms: _365  and  _367
REMARK  152  A    between atoms: _367  and  _368
REMARK  153  A    between atoms: _367  and  _370
REMARK  154  A    between atoms: _370  and  _371
REMARK  155  A    between atoms: _373  and  _375
REMARK  156  A    between atoms: _375  and  _376
REMARK  157  A    between atoms: _375  and  _378
REMARK  158  A    between atoms: _378  and  _379
REMARK  159  A    between atoms: _379  and  _380
REMARK  160  A    between atoms: _385  and  _387
REMARK  161  A    between atoms: _387  and  _388
REMARK  162  A    between atoms: _387  and  _390
REMARK  163  A    between atoms: _390  and  _391
REMARK  164  A    between atoms: _394  and  _396
REMARK  165  A    between atoms: _396  and  _397
REMARK  166  A    between atoms: _396  and  _399
REMARK  167  A    between atoms: _402  and  _404
REMARK  168  A    between atoms: _404  and  _405
REMARK  169  A    between atoms: _404  and  _407
REMARK  170  A    between atoms: _407  and  _408
REMARK  171  A    between atoms: _408  and  _409
REMARK  172  A    between atoms: _409  and  _410
REMARK  173  A    between atoms: _419  and  _421
REMARK  174  A    between atoms: _421  and  _422
REMARK  175  A    between atoms: _421  and  _424
REMARK  176  A    between atoms: _424  and  _425
REMARK  177  A    between atoms: _428  and  _430
REMARK  178  A    between atoms: _430  and  _431
REMARK  179  A    between atoms: _430  and  _433
REMARK  180  A    between atoms: _433  and  _434
REMARK  181  A    between atoms: _444  and  _446
REMARK  182  A    between atoms: _446  and  _447
REMARK  183  A    between atoms: _446  and  _449
REMARK  184  A    between atoms: _449  and  _450
REMARK  185  A    between atoms: _454  and  _455
REMARK  186  A    between atoms: _460  and  _462
REMARK  187  A    between atoms: _462  and  _463
REMARK  188  A    between atoms: _462  and  _465
REMARK  189  A    between atoms: _465  and  _466
REMARK  190  A    between atoms: _472  and  _473
REMARK  191  A    between atoms: _478  and  _480
REMARK  192  A    between atoms: _480  and  _481
REMARK  193  A    between atoms: _483  and  _485
REMARK  194  A    between atoms: _485  and  _486
REMARK  195  A    between atoms: _485  and  _488
REMARK  196  A    between atoms: _488  and  _489
REMARK  197  A    between atoms: _492  and  _494
REMARK  198  A    between atoms: _494  and  _495
REMARK  199  A    between atoms: _494  and  _497
REMARK  200  A    between atoms: _497  and  _498
REMARK  201  A    between atoms: _498  and  _499
REMARK  202  A    between atoms: _499  and  _500
REMARK  203  A    between atoms: _500  and  _501
REMARK  204  A    between atoms: _505  and  _507
REMARK  205  A    between atoms: _507  and  _508
REMARK  206  A    between atoms: _507  and  _510
REMARK  207  A    between atoms: _513  and  _515
REMARK  208  A    between atoms: _515  and  _516
REMARK  209  A    between atoms: _519  and  _521
REMARK  210  A    between atoms: _521  and  _522
REMARK  211  A    between atoms: _521  and  _524
REMARK  212  A    between atoms: _524  and  _525
REMARK  213  A    between atoms: _528  and  _530
REMARK  214  A    between atoms: _530  and  _531
REMARK  215  A    between atoms: _530  and  _533
REMARK  216  A    between atoms: _533  and  _534
REMARK  217  A    between atoms: _540  and  _541
REMARK  218  A    between atoms: _546  and  _548
REMARK  219  A    between atoms: _548  and  _549
REMARK  220  A    between atoms: _548  and  _551
REMARK  221  A    between atoms: _551  and  _552
REMARK  222  A    between atoms: _558  and  _560
REMARK  223  A    between atoms: _560  and  _561
REMARK  224  A    between atoms: _560  and  _563
REMARK  225  A    between atoms: _563  and  _564
REMARK  226  A    between atoms: _567  and  _569
REMARK  227  A    between atoms: _569  and  _570
REMARK  228  A    between atoms: _572  and  _574
REMARK  229  A    between atoms: _574  and  _575
REMARK  230  A    between atoms: _574  and  _577
REMARK  231  A    between atoms: _577  and  _578
REMARK  232  A    between atoms: _581  and  _583
REMARK  233  A    between atoms: _583  and  _584
REMARK  234  A    between atoms: _583  and  _586
REMARK  235  A    between atoms: _586  and  _587
REMARK  236  A    between atoms: _593  and  _595
REMARK  237  A    between atoms: _595  and  _596
REMARK  238  A    between atoms: _595  and  _598
REMARK  239  A    between atoms: _598  and  _599
REMARK  240  A    between atoms: _599  and  _600
REMARK  241  A    between atoms: _605  and  _607
REMARK  242  A    between atoms: _607  and  _608
REMARK  243  A    between atoms: _607  and  _610
REMARK  244  A    between atoms: _610  and  _611
REMARK  245  A    between atoms: _614  and  _616
REMARK  246  A    between atoms: _616  and  _617
REMARK  247  A    between atoms: _616  and  _619
REMARK  248  A    between atoms: _619  and  _620
REMARK  249  A    between atoms: _622  and  _624
REMARK  250  A    between atoms: _624  and  _625
REMARK  251  A    between atoms: _624  and  _627
REMARK  252  A    between atoms: _627  and  _628
REMARK  253  A    between atoms: _634  and  _636
REMARK  254  A    between atoms: _636  and  _637
REMARK  255  A    between atoms: _636  and  _639
REMARK  256  A    between atoms: _639  and  _640
REMARK  257  A    between atoms: _645  and  _646
REMARK  258  A    between atoms: _648  and  _650
REMARK  259  A    between atoms: _650  and  _651
REMARK  260  A    between atoms: _650  and  _653
REMARK  261  A    between atoms: _653  and  _654
REMARK                            x       y       z     vdW  Elec       q    Type
REMARK                         _______ _______ _______ _____ _____    ______ ____
ROOT
ATOM      1  O   HOH     1      21.855 -10.099 -46.434  0.00  0.00    +0.000 OA
ENDROOT
TORSDOF 0
REMARK  Name = ../refined-set-2016/4idn/4idn_pocket.pdb
REMARK  261 active torsions:
REMARK  status: ('A' for Active; 'I' for Inactive)
REMARK    1  A    between atoms: _1  and  _3
REMARK    2  A    between atoms: _3  and  _4
REMARK    3  A    between atoms: _3  and  _6
REMARK    4  A    between atoms: _9  and  _11
REMARK    5  A    between atoms: _11  and  _12
REMARK    6  A    between atoms: _15  and  _17
REMARK    7  A    between atoms: _17  and  _18
REMARK    8  A    between atoms: _20  and  _22
REMARK    9  A    between atoms: _22  and  _23
REMARK   10  A    between atoms: _26  and  _28
REMARK   11  A    between atoms: _28  and  _29
REMARK   12  A    between atoms: _28  and  _31
REMARK   13  A    between atoms: _31  and  _32
REMARK   14  A    between atoms: _38  and  _40
REMARK   15  A    between atoms: _40  and  _41
REMARK   16  A    between atoms: _40  and  _43
REMARK   17  A    between atoms: _43  and  _44
REMARK   18  A    between atoms: _44  and  _45
REMARK   19  A    between atoms: _45  and  _46
REMARK   20  A    between atoms: _55  and  _57
REMARK   21  A    between atoms: _57  and  _58
REMARK   22  A    between atoms: _57  and  _60
REMARK   23  A    between atoms: _60  and  _61
REMARK   24  A    between atoms: _61  and  _62
REMARK   25  A    between atoms: _62  and  _63
REMARK   26  A    between atoms: _63  and  _64
REMARK   27  A    between atoms: _68  and  _70
REMARK   28  A    between atoms: _70  and  _71
REMARK   29  A    between atoms: _73  and  _75
REMARK   30  A    between atoms: _75  and  _76
REMARK   31  A    between atoms: _75  and  _78
REMARK   32  A    between atoms: _78  and  _79
REMARK   33  A    between atoms: _79  and  _80
REMARK   34  A    between atoms: _80  and  _81
REMARK   35  A    between atoms: _81  and  _82
REMARK   36  A    between atoms: _86  and  _88
REMARK   37  A    between atoms: _88  and  _89
REMARK   38  A    between atoms: _88  and  _91
REMARK   39  A    between atoms: _91  and  _92
REMARK   40  A    between atoms: _94  and  _96
REMARK   41  A    between atoms: _96  and  _97
REMARK   42  A    between atoms: _96  and  _99
REMARK   43  A    between atoms: _99  and  _100
REMARK   44  A    between atoms: _106  and  _108
REMARK   45  A    between atoms: _108  and  _109
REMARK   46  A    between atoms: _108  and  _111
REMARK   47  A    between atoms: _111  and  _112
REMARK   48  A    between atoms: _115  and  _117
REMARK   49  A    between atoms: _117  and  _118
REMARK   50  A    between atoms: _117  and  _120
REMARK   51  A    between atoms: _120  and  _121
REMARK   52  A    between atoms: _121  and  _122
REMARK   53  A    between atoms: _124  and  _126
REMARK   54  A    between atoms: _126  and  _127
REMARK   55  A    between atoms: _126  and  _129
REMARK   56  A    between atoms: _129  and  _130
REMARK   57  A    between atoms: _133  and  _135
REMARK   58  A    between atoms: _135  and  _136
REMARK   59  A    between atoms: _135  and  _138
REMARK   60  A    between atoms: _138  and  _139
REMARK   61  A    between atoms: _145  and  _147
REMARK   62  A    between atoms: _147  and  _148
REMARK   63  A    between atoms: _147  and  _150
REMARK   64  A    between atoms: _150  and  _151
REMARK   65  A    between atoms: _154  and  _156
REMARK   66  A    between atoms: _156  and  _157
REMARK   67  A    between atoms: _156  and  _159
REMARK   68  A    between atoms: _159  and  _160
REMARK   69  A    between atoms: _166  and  _168
REMARK   70  A    between atoms: _168  and  _169
REMARK   71  A    between atoms: _168  and  _171
REMARK   72  A    between atoms: _171  and  _172
REMARK   73  A    between atoms: _174  and  _176
REMARK   74  A    between atoms: _176  and  _177
REMARK   75  A    between atoms: _176  and  _179
REMARK   76  A    between atoms: _179  and  _180
REMARK   77  A    between atoms: _190  and  _192
REMARK   78  A    between atoms: _192  and  _193
REMARK   79  A    between atoms: _192  and  _195
REMARK   80  A    between atoms: _195  and  _196
REMARK   81  A    between atoms: _196  and  _197
REMARK   82  A    between atoms: _197  and  _198
REMARK   83  A    between atoms: _207  and  _209
REMARK   84  A    between atoms: _209  and  _210
REMARK   85  A    between atoms: _212  and  _214
REMARK   86  A    between atoms: _214  and  _215
REMARK   87  A    between atoms: _217  and  _219
REMARK   88  A    between atoms: _219  and  _220
REMARK   89  A    between atoms: _219  and  _222
REMARK   90  A    between atoms: _222  and  _223
REMARK   91  A    between atoms: _225  and  _227
REMARK   92  A    between atoms: _227  and  _228
REMARK   93  A    between atoms: _227  and  _230
REMARK   94  A    between atoms: _230  and  _231
REMARK   95  A    between atoms: _231  and  _232
REMARK   96  A    between atoms: _235  and  _237
REMARK   97  A    between atoms: _237  and  _238
REMARK   98  A    between atoms: _237  and  _240
REMARK   99  A    between atoms: _240  and  _241
REMARK  100  A    between atoms: _241  and  _242
REMARK  101  A    between atoms: _242  and  _243
REMARK  102  A    between atoms: _252  and  _254
REMARK  103  A    between atoms: _254  and  _255
REMARK  104  A    between atoms: _254  and  _257
REMARK  105  A    between atoms: _257  and  _258
REMARK  106  A    between atoms: _258  and  _259
REMARK  107  A    between atoms: _262  and  _264
REMARK  108  A    between atoms: _264  and  _265
REMARK  109  A    between atoms: _264  and  _267
REMARK  110  A    between atoms: _267  and  _268
REMARK  111  A    between atoms: _271  and  _273
REMARK  112  A    between atoms: _273  and  _274
REMARK  113  A    between atoms: _273  and  _276
REMARK  114  A    between atoms: _276  and  _277
REMARK  115  A    between atoms: _280  and  _282
REMARK  116  A    between atoms: _282  and  _283
REMARK  117  A    between atoms: _282  and  _285
REMARK  118  A    between atoms: _285  and  _286
REMARK  119  A    between atoms: _286  and  _287
REMARK  120  A    between atoms: _292  and  _294
REMARK  121  A    between atoms: _294  and  _295
REMARK  122  A    between atoms: _294  and  _297
REMARK  123  A    between atoms: _297  and  _298
REMARK  124  A    between atoms: _301  and  _303
REMARK  125  A    between atoms: _303  and  _304
REMARK  126  A    between atoms: _303  and  _306
REMARK  127  A    between atoms: _306  and  _307
REMARK  128  A    between atoms: _310  and  _312
REMARK  129  A    between atoms: _312  and  _313
REMARK  130  A    between atoms: _312  and  _315
REMARK  131  A    between atoms: _315  and  _316
REMARK  132  A    between atoms: _316  and  _317
REMARK  133  A    between atoms: _322  and  _324
REMARK  134  A    between atoms: _324  and  _325
REMARK  135  A    between atoms: _327  and  _329
REMARK  136  A    between atoms: _329  and  _330
REMARK  137  A    between atoms: _329  and  _332
REMARK  138  A    between atoms: _332  and  _333
REMARK  139  A    between atoms: _336  and  _338
REMARK  140  A    between atoms: _338  and  _339
REMARK  141  A    between atoms: _338  and  _341
REMARK  142  A    between atoms: _341  and  _342
REMARK  143  A    between atoms: _345  and  _347
REMARK  144  A    between atoms: _347  and  _348
REMARK  145  A    between atoms: _347  and  _350
REMARK  146  A    between atoms: _350  and  _351
REMARK  147  A    between atoms: _356  and  _358
REMARK  148  A    between atoms: _358  and  _359
REMARK  149  A    between atoms: _358  and  _361
REMARK  150  A    between atoms: _361  and  _362
REMARK  151  A    between atoms: _365  and  _367
REMARK  152  A    between atoms: _367  and  _368
REMARK  153  A    between atoms: _367  and  _370
REMARK  154  A    between atoms: _370  and  _371
REMARK  155  A    between atoms: _373  and  _375
REMARK  156  A    between atoms: _375  and  _376
REMARK  157  A    between atoms: _375  and  _378
REMARK  158  A    between atoms: _378  and  _379
REMARK  159  A    between atoms: _379  and  _380
REMARK  160  A    between atoms: _385  and  _387
REMARK  161  A    between atoms: _387  and  _388
REMARK  162  A    between atoms: _387  and  _390
REMARK  163  A    between atoms: _390  and  _391
REMARK  164  A    between atoms: _394  and  _396
REMARK  165  A    between atoms: _396  and  _397
REMARK  166  A    between atoms: _396  and  _399
REMARK  167  A    between atoms: _402  and  _404
REMARK  168  A    between atoms: _404  and  _405
REMARK  169  A    between atoms: _404  and  _407
REMARK  170  A    between atoms: _407  and  _408
REMARK  171  A    between atoms: _408  and  _409
REMARK  172  A    between atoms: _409  and  _410
REMARK  173  A    between atoms: _419  and  _421
REMARK  174  A    between atoms: _421  and  _422
REMARK  175  A    between atoms: _421  and  _424
REMARK  176  A    between atoms: _424  and  _425
REMARK  177  A    between atoms: _428  and  _430
REMARK  178  A    between atoms: _430  and  _431
REMARK  179  A    between atoms: _430  and  _433
REMARK  180  A    between atoms: _433  and  _434
REMARK  181  A    between atoms: _444  and  _446
REMARK  182  A    between atoms: _446  and  _447
REMARK  183  A    between atoms: _446  and  _449
REMARK  184  A    between atoms: _449  and  _450
REMARK  185  A    between atoms: _454  and  _455
REMARK  186  A    between atoms: _460  and  _462
REMARK  187  A    between atoms: _462  and  _463
REMARK  188  A    between atoms: _462  and  _465
REMARK  189  A    between atoms: _465  and  _466
REMARK  190  A    between atoms: _472  and  _473
REMARK  191  A    between atoms: _478  and  _480
REMARK  192  A    between atoms: _480  and  _481
REMARK  193  A    between atoms: _483  and  _485
REMARK  194  A    between atoms: _485  and  _486
REMARK  195  A    between atoms: _485  and  _488
REMARK  196  A    between atoms: _488  and  _489
REMARK  197  A    between atoms: _492  and  _494
REMARK  198  A    between atoms: _494  and  _495
REMARK  199  A    between atoms: _494  and  _497
REMARK  200  A    between atoms: _497  and  _498
REMARK  201  A    between atoms: _498  and  _499
REMARK  202  A    between atoms: _499  and  _500
REMARK  203  A    between atoms: _500  and  _501
REMARK  204  A    between atoms: _505  and  _507
REMARK  205  A    between atoms: _507  and  _508
REMARK  206  A    between atoms: _507  and  _510
REMARK  207  A    between atoms: _513  and  _515
REMARK  208  A    between atoms: _515  and  _516
REMARK  209  A    between atoms: _519  and  _521
REMARK  210  A    between atoms: _521  and  _522
REMARK  211  A    between atoms: _521  and  _524
REMARK  212  A    between atoms: _524  and  _525
REMARK  213  A    between atoms: _528  and  _530
REMARK  214  A    between atoms: _530  and  _531
REMARK  215  A    between atoms: _530  and  _533
REMARK  216  A    between atoms: _533  and  _534
REMARK  217  A    between atoms: _540  and  _541
REMARK  218  A    between atoms: _546  and  _548
REMARK  219  A    between atoms: _548  and  _549
REMARK  220  A    between atoms: _548  and  _551
REMARK  221  A    between atoms: _551  and  _552
REMARK  222  A    between atoms: _558  and  _560
REMARK  223  A    between atoms: _560  and  _561
REMARK  224  A    between atoms: _560  and  _563
REMARK  225  A    between atoms: _563  and  _564
REMARK  226  A    between atoms: _567  and  _569
REMARK  227  A    between atoms: _569  and  _570
REMARK  228  A    between atoms: _572  and  _574
REMARK  229  A    between atoms: _574  and  _575
REMARK  230  A    between atoms: _574  and  _577
REMARK  231  A    between atoms: _577  and  _578
REMARK  232  A    between atoms: _581  and  _583
REMARK  233  A    between atoms: _583  and  _584
REMARK  234  A    between atoms: _583  and  _586
REMARK  235  A    between atoms: _586  and  _587
REMARK  236  A    between atoms: _593  and  _595
REMARK  237  A    between atoms: _595  and  _596
REMARK  238  A    between atoms: _595  and  _598
REMARK  239  A    between atoms: _598  and  _599
REMARK  240  A    between atoms: _599  and  _600
REMARK  241  A    between atoms: _605  and  _607
REMARK  242  A    between atoms: _607  and  _608
REMARK  243  A    between atoms: _607  and  _610
REMARK  244  A    between atoms: _610  and  _611
REMARK  245  A    between atoms: _614  and  _616
REMARK  246  A    between atoms: _616  and  _617
REMARK  247  A    between atoms: _616  and  _619
REMARK  248  A    between atoms: _619  and  _620
REMARK  249  A    between atoms: _622  and  _624
REMARK  250  A    between atoms: _624  and  _625
REMARK  251  A    between atoms: _624  and  _627
REMARK  252  A    between atoms: _627  and  _628
REMARK  253  A    between atoms: _634  and  _636
REMARK  254  A    between atoms: _636  and  _637
REMARK  255  A    between atoms: _636  and  _639
REMARK  256  A    between atoms: _639  and  _640
REMARK  257  A    between atoms: _645  and  _646
REMARK  258  A    between atoms: _648  and  _650
REMARK  259  A    between atoms: _650  and  _651
REMARK  260  A    between atoms: _650  and  _653
REMARK  261  A    between atoms: _653  and  _654
REMARK                            x       y       z     vdW  Elec       q    Type
REMARK                         _______ _______ _______ _____ _____    ______ ____
ROOT
ATOM      1  O   HOH     1      21.520   1.802 -59.505  0.00  0.00    +0.000 OA
ENDROOT
TORSDOF 0
REMARK  Name = ../refined-set-2016/4idn/4idn_pocket.pdb
REMARK  261 active torsions:
REMARK  status: ('A' for Active; 'I' for Inactive)
REMARK    1  A    between atoms: _1  and  _3
REMARK    2  A    between atoms: _3  and  _4
REMARK    3  A    between atoms: _3  and  _6
REMARK    4  A    between atoms: _9  and  _11
REMARK    5  A    between atoms: _11  and  _12
REMARK    6  A    between atoms: _15  and  _17
REMARK    7  A    between atoms: _17  and  _18
REMARK    8  A    between atoms: _20  and  _22
REMARK    9  A    between atoms: _22  and  _23
REMARK   10  A    between atoms: _26  and  _28
REMARK   11  A    between atoms: _28  and  _29
REMARK   12  A    between atoms: _28  and  _31
REMARK   13  A    between atoms: _31  and  _32
REMARK   14  A    between atoms: _38  and  _40
REMARK   15  A    between atoms: _40  and  _41
REMARK   16  A    between atoms: _40  and  _43
REMARK   17  A    between atoms: _43  and  _44
REMARK   18  A    between atoms: _44  and  _45
REMARK   19  A    between atoms: _45  and  _46
REMARK   20  A    between atoms: _55  and  _57
REMARK   21  A    between atoms: _57  and  _58
REMARK   22  A    between atoms: _57  and  _60
REMARK   23  A    between atoms: _60  and  _61
REMARK   24  A    between atoms: _61  and  _62
REMARK   25  A    between atoms: _62  and  _63
REMARK   26  A    between atoms: _63  and  _64
REMARK   27  A    between atoms: _68  and  _70
REMARK   28  A    between atoms: _70  and  _71
REMARK   29  A    between atoms: _73  and  _75
REMARK   30  A    between atoms: _75  and  _76
REMARK   31  A    between atoms: _75  and  _78
REMARK   32  A    between atoms: _78  and  _79
REMARK   33  A    between atoms: _79  and  _80
REMARK   34  A    between atoms: _80  and  _81
REMARK   35  A    between atoms: _81  and  _82
REMARK   36  A    between atoms: _86  and  _88
REMARK   37  A    between atoms: _88  and  _89
REMARK   38  A    between atoms: _88  and  _91
REMARK   39  A    between atoms: _91  and  _92
REMARK   40  A    between atoms: _94  and  _96
REMARK   41  A    between atoms: _96  and  _97
REMARK   42  A    between atoms: _96  and  _99
REMARK   43  A    between atoms: _99  and  _100
REMARK   44  A    between atoms: _106  and  _108
REMARK   45  A    between atoms: _108  and  _109
REMARK   46  A    between atoms: _108  and  _111
REMARK   47  A    between atoms: _111  and  _112
REMARK   48  A    between atoms: _115  and  _117
REMARK   49  A    between atoms: _117  and  _118
REMARK   50  A    between atoms: _117  and  _120
REMARK   51  A    between atoms: _120  and  _121
REMARK   52  A    between atoms: _121  and  _122
REMARK   53  A    between atoms: _124  and  _126
REMARK   54  A    between atoms: _126  and  _127
REMARK   55  A    between atoms: _126  and  _129
REMARK   56  A    between atoms: _129  and  _130
REMARK   57  A    between atoms: _133  and  _135
REMARK   58  A    between atoms: _135  and  _136
REMARK   59  A    between atoms: _135  and  _138
REMARK   60  A    between atoms: _138  and  _139
REMARK   61  A    between atoms: _145  and  _147
REMARK   62  A    between atoms: _147  and  _148
REMARK   63  A    between atoms: _147  and  _150
REMARK   64  A    between atoms: _150  and  _151
REMARK   65  A    between atoms: _154  and  _156
REMARK   66  A    between atoms: _156  and  _157
REMARK   67  A    between atoms: _156  and  _159
REMARK   68  A    between atoms: _159  and  _160
REMARK   69  A    between atoms: _166  and  _168
REMARK   70  A    between atoms: _168  and  _169
REMARK   71  A    between atoms: _168  and  _171
REMARK   72  A    between atoms: _171  and  _172
REMARK   73  A    between atoms: _174  and  _176
REMARK   74  A    between atoms: _176  and  _177
REMARK   75  A    between atoms: _176  and  _179
REMARK   76  A    between atoms: _179  and  _180
REMARK   77  A    between atoms: _190  and  _192
REMARK   78  A    between atoms: _192  and  _193
REMARK   79  A    between atoms: _192  and  _195
REMARK   80  A    between atoms: _195  and  _196
REMARK   81  A    between atoms: _196  and  _197
REMARK   82  A    between atoms: _197  and  _198
REMARK   83  A    between atoms: _207  and  _209
REMARK   84  A    between atoms: _209  and  _210
REMARK   85  A    between atoms: _212  and  _214
REMARK   86  A    between atoms: _214  and  _215
REMARK   87  A    between atoms: _217  and  _219
REMARK   88  A    between atoms: _219  and  _220
REMARK   89  A    between atoms: _219  and  _222
REMARK   90  A    between atoms: _222  and  _223
REMARK   91  A    between atoms: _225  and  _227
REMARK   92  A    between atoms: _227  and  _228
REMARK   93  A    between atoms: _227  and  _230
REMARK   94  A    between atoms: _230  and  _231
REMARK   95  A    between atoms: _231  and  _232
REMARK   96  A    between atoms: _235  and  _237
REMARK   97  A    between atoms: _237  and  _238
REMARK   98  A    between atoms: _237  and  _240
REMARK   99  A    between atoms: _240  and  _241
REMARK  100  A    between atoms: _241  and  _242
REMARK  101  A    between atoms: _242  and  _243
REMARK  102  A    between atoms: _252  and  _254
REMARK  103  A    between atoms: _254  and  _255
REMARK  104  A    between atoms: _254  and  _257
REMARK  105  A    between atoms: _257  and  _258
REMARK  106  A    between atoms: _258  and  _259
REMARK  107  A    between atoms: _262  and  _264
REMARK  108  A    between atoms: _264  and  _265
REMARK  109  A    between atoms: _264  and  _267
REMARK  110  A    between atoms: _267  and  _268
REMARK  111  A    between atoms: _271  and  _273
REMARK  112  A    between atoms: _273  and  _274
REMARK  113  A    between atoms: _273  and  _276
REMARK  114  A    between atoms: _276  and  _277
REMARK  115  A    between atoms: _280  and  _282
REMARK  116  A    between atoms: _282  and  _283
REMARK  117  A    between atoms: _282  and  _285
REMARK  118  A    between atoms: _285  and  _286
REMARK  119  A    between atoms: _286  and  _287
REMARK  120  A    between atoms: _292  and  _294
REMARK  121  A    between atoms: _294  and  _295
REMARK  122  A    between atoms: _294  and  _297
REMARK  123  A    between atoms: _297  and  _298
REMARK  124  A    between atoms: _301  and  _303
REMARK  125  A    between atoms: _303  and  _304
REMARK  126  A    between atoms: _303  and  _306
REMARK  127  A    between atoms: _306  and  _307
REMARK  128  A    between atoms: _310  and  _312
REMARK  129  A    between atoms: _312  and  _313
REMARK  130  A    between atoms: _312  and  _315
REMARK  131  A    between atoms: _315  and  _316
REMARK  132  A    between atoms: _316  and  _317
REMARK  133  A    between atoms: _322  and  _324
REMARK  134  A    between atoms: _324  and  _325
REMARK  135  A    between atoms: _327  and  _329
REMARK  136  A    between atoms: _329  and  _330
REMARK  137  A    between atoms: _329  and  _332
REMARK  138  A    between atoms: _332  and  _333
REMARK  139  A    between atoms: _336  and  _338
REMARK  140  A    between atoms: _338  and  _339
REMARK  141  A    between atoms: _338  and  _341
REMARK  142  A    between atoms: _341  and  _342
REMARK  143  A    between atoms: _345  and  _347
REMARK  144  A    between atoms: _347  and  _348
REMARK  145  A    between atoms: _347  and  _350
REMARK  146  A    between atoms: _350  and  _351
REMARK  147  A    between atoms: _356  and  _358
REMARK  148  A    between atoms: _358  and  _359
REMARK  149  A    between atoms: _358  and  _361
REMARK  150  A    between atoms: _361  and  _362
REMARK  151  A    between atoms: _365  and  _367
REMARK  152  A    between atoms: _367  and  _368
REMARK  153  A    between atoms: _367  and  _370
REMARK  154  A    between atoms: _370  and  _371
REMARK  155  A    between atoms: _373  and  _375
REMARK  156  A    between atoms: _375  and  _376
REMARK  157  A    between atoms: _375  and  _378
REMARK  158  A    between atoms: _378  and  _379
REMARK  159  A    between atoms: _379  and  _380
REMARK  160  A    between atoms: _385  and  _387
REMARK  161  A    between atoms: _387  and  _388
REMARK  162  A    between atoms: _387  and  _390
REMARK  163  A    between atoms: _390  and  _391
REMARK  164  A    between atoms: _394  and  _396
REMARK  165  A    between atoms: _396  and  _397
REMARK  166  A    between atoms: _396  and  _399
REMARK  167  A    between atoms: _402  and  _404
REMARK  168  A    between atoms: _404  and  _405
REMARK  169  A    between atoms: _404  and  _407
REMARK  170  A    between atoms: _407  and  _408
REMARK  171  A    between atoms: _408  and  _409
REMARK  172  A    between atoms: _409  and  _410
REMARK  173  A    between atoms: _419  and  _421
REMARK  174  A    between atoms: _421  and  _422
REMARK  175  A    between atoms: _421  and  _424
REMARK  176  A    between atoms: _424  and  _425
REMARK  177  A    between atoms: _428  and  _430
REMARK  178  A    between atoms: _430  and  _431
REMARK  179  A    between atoms: _430  and  _433
REMARK  180  A    between atoms: _433  and  _434
REMARK  181  A    between atoms: _444  and  _446
REMARK  182  A    between atoms: _446  and  _447
REMARK  183  A    between atoms: _446  and  _449
REMARK  184  A    between atoms: _449  and  _450
REMARK  185  A    between atoms: _454  and  _455
REMARK  186  A    between atoms: _460  and  _462
REMARK  187  A    between atoms: _462  and  _463
REMARK  188  A    between atoms: _462  and  _465
REMARK  189  A    between atoms: _465  and  _466
REMARK  190  A    between atoms: _472  and  _473
REMARK  191  A    between atoms: _478  and  _480
REMARK  192  A    between atoms: _480  and  _481
REMARK  193  A    between atoms: _483  and  _485
REMARK  194  A    between atoms: _485  and  _486
REMARK  195  A    between atoms: _485  and  _488
REMARK  196  A    between atoms: _488  and  _489
REMARK  197  A    between atoms: _492  and  _494
REMARK  198  A    between atoms: _494  and  _495
REMARK  199  A    between atoms: _494  and  _497
REMARK  200  A    between atoms: _497  and  _498
REMARK  201  A    between atoms: _498  and  _499
REMARK  202  A    between atoms: _499  and  _500
REMARK  203  A    between atoms: _500  and  _501
REMARK  204  A    between atoms: _505  and  _507
REMARK  205  A    between atoms: _507  and  _508
REMARK  206  A    between atoms: _507  and  _510
REMARK  207  A    between atoms: _513  and  _515
REMARK  208  A    between atoms: _515  and  _516
REMARK  209  A    between atoms: _519  and  _521
REMARK  210  A    between atoms: _521  and  _522
REMARK  211  A    between atoms: _521  and  _524
REMARK  212  A    between atoms: _524  and  _525
REMARK  213  A    between atoms: _528  and  _530
REMARK  214  A    between atoms: _530  and  _531
REMARK  215  A    between atoms: _530  and  _533
REMARK  216  A    between atoms: _533  and  _534
REMARK  217  A    between atoms: _540  and  _541
REMARK  218  A    between atoms: _546  and  _548
REMARK  219  A    between atoms: _548  and  _549
REMARK  220  A    between atoms: _548  and  _551
REMARK  221  A    between atoms: _551  and  _552
REMARK  222  A    between atoms: _558  and  _560
REMARK  223  A    between atoms: _560  and  _561
REMARK  224  A    between atoms: _560  and  _563
REMARK  225  A    between atoms: _563  and  _564
REMARK  226  A    between atoms: _567  and  _569
REMARK  227  A    between atoms: _569  and  _570
REMARK  228  A    between atoms: _572  and  _574
REMARK  229  A    between atoms: _574  and  _575
REMARK  230  A    between atoms: _574  and  _577
REMARK  231  A    between atoms: _577  and  _578
REMARK  232  A    between atoms: _581  and  _583
REMARK  233  A    between atoms: _583  and  _584
REMARK  234  A    between atoms: _583  and  _586
REMARK  235  A    between atoms: _586  and  _587
REMARK  236  A    between atoms: _593  and  _595
REMARK  237  A    between atoms: _595  and  _596
REMARK  238  A    between atoms: _595  and  _598
REMARK  239  A    between atoms: _598  and  _599
REMARK  240  A    between atoms: _599  and  _600
REMARK  241  A    between atoms: _605  and  _607
REMARK  242  A    between atoms: _607  and  _608
REMARK  243  A    between atoms: _607  and  _610
REMARK  244  A    between atoms: _610  and  _611
REMARK  245  A    between atoms: _614  and  _616
REMARK  246  A    between atoms: _616  and  _617
REMARK  247  A    between atoms: _616  and  _619
REMARK  248  A    between atoms: _619  and  _620
REMARK  249  A    between atoms: _622  and  _624
REMARK  250  A    between atoms: _624  and  _625
REMARK  251  A    between atoms: _624  and  _627
REMARK  252  A    between atoms: _627  and  _628
REMARK  253  A    between atoms: _634  and  _636
REMARK  254  A    between atoms: _636  and  _637
REMARK  255  A    between atoms: _636  and  _639
REMARK  256  A    between atoms: _639  and  _640
REMARK  257  A    between atoms: _645  and  _646
REMARK  258  A    between atoms: _648  and  _650
REMARK  259  A    between atoms: _650  and  _651
REMARK  260  A    between atoms: _650  and  _653
REMARK  261  A    between atoms: _653  and  _654
REMARK                            x       y       z     vdW  Elec       q    Type
REMARK                         _______ _______ _______ _____ _____    ______ ____
ROOT
ATOM      1  O   HOH     1      24.623   0.179 -42.073  0.00  0.00    +0.000 OA
ENDROOT
TORSDOF 0
REMARK  Name = ../refined-set-2016/4idn/4idn_pocket.pdb
REMARK  261 active torsions:
REMARK  status: ('A' for Active; 'I' for Inactive)
REMARK    1  A    between atoms: _1  and  _3
REMARK    2  A    between atoms: _3  and  _4
REMARK    3  A    between atoms: _3  and  _6
REMARK    4  A    between atoms: _9  and  _11
REMARK    5  A    between atoms: _11  and  _12
REMARK    6  A    between atoms: _15  and  _17
REMARK    7  A    between atoms: _17  and  _18
REMARK    8  A    between atoms: _20  and  _22
REMARK    9  A    between atoms: _22  and  _23
REMARK   10  A    between atoms: _26  and  _28
REMARK   11  A    between atoms: _28  and  _29
REMARK   12  A    between atoms: _28  and  _31
REMARK   13  A    between atoms: _31  and  _32
REMARK   14  A    between atoms: _38  and  _40
REMARK   15  A    between atoms: _40  and  _41
REMARK   16  A    between atoms: _40  and  _43
REMARK   17  A    between atoms: _43  and  _44
REMARK   18  A    between atoms: _44  and  _45
REMARK   19  A    between atoms: _45  and  _46
REMARK   20  A    between atoms: _55  and  _57
REMARK   21  A    between atoms: _57  and  _58
REMARK   22  A    between atoms: _57  and  _60
REMARK   23  A    between atoms: _60  and  _61
REMARK   24  A    between atoms: _61  and  _62
REMARK   25  A    between atoms: _62  and  _63
REMARK   26  A    between atoms: _63  and  _64
REMARK   27  A    between atoms: _68  and  _70
REMARK   28  A    between atoms: _70  and  _71
REMARK   29  A    between atoms: _73  and  _75
REMARK   30  A    between atoms: _75  and  _76
REMARK   31  A    between atoms: _75  and  _78
REMARK   32  A    between atoms: _78  and  _79
REMARK   33  A    between atoms: _79  and  _80
REMARK   34  A    between atoms: _80  and  _81
REMARK   35  A    between atoms: _81  and  _82
REMARK   36  A    between atoms: _86  and  _88
REMARK   37  A    between atoms: _88  and  _89
REMARK   38  A    between atoms: _88  and  _91
REMARK   39  A    between atoms: _91  and  _92
REMARK   40  A    between atoms: _94  and  _96
REMARK   41  A    between atoms: _96  and  _97
REMARK   42  A    between atoms: _96  and  _99
REMARK   43  A    between atoms: _99  and  _100
REMARK   44  A    between atoms: _106  and  _108
REMARK   45  A    between atoms: _108  and  _109
REMARK   46  A    between atoms: _108  and  _111
REMARK   47  A    between atoms: _111  and  _112
REMARK   48  A    between atoms: _115  and  _117
REMARK   49  A    between atoms: _117  and  _118
REMARK   50  A    between atoms: _117  and  _120
REMARK   51  A    between atoms: _120  and  _121
REMARK   52  A    between atoms: _121  and  _122
REMARK   53  A    between atoms: _124  and  _126
REMARK   54  A    between atoms: _126  and  _127
REMARK   55  A    between atoms: _126  and  _129
REMARK   56  A    between atoms: _129  and  _130
REMARK   57  A    between atoms: _133  and  _135
REMARK   58  A    between atoms: _135  and  _136
REMARK   59  A    between atoms: _135  and  _138
REMARK   60  A    between atoms: _138  and  _139
REMARK   61  A    between atoms: _145  and  _147
REMARK   62  A    between atoms: _147  and  _148
REMARK   63  A    between atoms: _147  and  _150
REMARK   64  A    between atoms: _150  and  _151
REMARK   65  A    between atoms: _154  and  _156
REMARK   66  A    between atoms: _156  and  _157
REMARK   67  A    between atoms: _156  and  _159
REMARK   68  A    between atoms: _159  and  _160
REMARK   69  A    between atoms: _166  and  _168
REMARK   70  A    between atoms: _168  and  _169
REMARK   71  A    between atoms: _168  and  _171
REMARK   72  A    between atoms: _171  and  _172
REMARK   73  A    between atoms: _174  and  _176
REMARK   74  A    between atoms: _176  and  _177
REMARK   75  A    between atoms: _176  and  _179
REMARK   76  A    between atoms: _179  and  _180
REMARK   77  A    between atoms: _190  and  _192
REMARK   78  A    between atoms: _192  and  _193
REMARK   79  A    between atoms: _192  and  _195
REMARK   80  A    between atoms: _195  and  _196
REMARK   81  A    between atoms: _196  and  _197
REMARK   82  A    between atoms: _197  and  _198
REMARK   83  A    between atoms: _207  and  _209
REMARK   84  A    between atoms: _209  and  _210
REMARK   85  A    between atoms: _212  and  _214
REMARK   86  A    between atoms: _214  and  _215
REMARK   87  A    between atoms: _217  and  _219
REMARK   88  A    between atoms: _219  and  _220
REMARK   89  A    between atoms: _219  and  _222
REMARK   90  A    between atoms: _222  and  _223
REMARK   91  A    between atoms: _225  and  _227
REMARK   92  A    between atoms: _227  and  _228
REMARK   93  A    between atoms: _227  and  _230
REMARK   94  A    between atoms: _230  and  _231
REMARK   95  A    between atoms: _231  and  _232
REMARK   96  A    between atoms: _235  and  _237
REMARK   97  A    between atoms: _237  and  _238
REMARK   98  A    between atoms: _237  and  _240
REMARK   99  A    between atoms: _240  and  _241
REMARK  100  A    between atoms: _241  and  _242
REMARK  101  A    between atoms: _242  and  _243
REMARK  102  A    between atoms: _252  and  _254
REMARK  103  A    between atoms: _254  and  _255
REMARK  104  A    between atoms: _254  and  _257
REMARK  105  A    between atoms: _257  and  _258
REMARK  106  A    between atoms: _258  and  _259
REMARK  107  A    between atoms: _262  and  _264
REMARK  108  A    between atoms: _264  and  _265
REMARK  109  A    between atoms: _264  and  _267
REMARK  110  A    between atoms: _267  and  _268
REMARK  111  A    between atoms: _271  and  _273
REMARK  112  A    between atoms: _273  and  _274
REMARK  113  A    between atoms: _273  and  _276
REMARK  114  A    between atoms: _276  and  _277
REMARK  115  A    between atoms: _280  and  _282
REMARK  116  A    between atoms: _282  and  _283
REMARK  117  A    between atoms: _282  and  _285
REMARK  118  A    between atoms: _285  and  _286
REMARK  119  A    between atoms: _286  and  _287
REMARK  120  A    between atoms: _292  and  _294
REMARK  121  A    between atoms: _294  and  _295
REMARK  122  A    between atoms: _294  and  _297
REMARK  123  A    between atoms: _297  and  _298
REMARK  124  A    between atoms: _301  and  _303
REMARK  125  A    between atoms: _303  and  _304
REMARK  126  A    between atoms: _303  and  _306
REMARK  127  A    between atoms: _306  and  _307
REMARK  128  A    between atoms: _310  and  _312
REMARK  129  A    between atoms: _312  and  _313
REMARK  130  A    between atoms: _312  and  _315
REMARK  131  A    between atoms: _315  and  _316
REMARK  132  A    between atoms: _316  and  _317
REMARK  133  A    between atoms: _322  and  _324
REMARK  134  A    between atoms: _324  and  _325
REMARK  135  A    between atoms: _327  and  _329
REMARK  136  A    between atoms: _329  and  _330
REMARK  137  A    between atoms: _329  and  _332
REMARK  138  A    between atoms: _332  and  _333
REMARK  139  A    between atoms: _336  and  _338
REMARK  140  A    between atoms: _338  and  _339
REMARK  141  A    between atoms: _338  and  _341
REMARK  142  A    between atoms: _341  and  _342
REMARK  143  A    between atoms: _345  and  _347
REMARK  144  A    between atoms: _347  and  _348
REMARK  145  A    between atoms: _347  and  _350
REMARK  146  A    between atoms: _350  and  _351
REMARK  147  A    between atoms: _356  and  _358
REMARK  148  A    between atoms: _358  and  _359
REMARK  149  A    between atoms: _358  and  _361
REMARK  150  A    between atoms: _361  and  _362
REMARK  151  A    between atoms: _365  and  _367
REMARK  152  A    between atoms: _367  and  _368
REMARK  153  A    between atoms: _367  and  _370
REMARK  154  A    between atoms: _370  and  _371
REMARK  155  A    between atoms: _373  and  _375
REMARK  156  A    between atoms: _375  and  _376
REMARK  157  A    between atoms: _375  and  _378
REMARK  158  A    between atoms: _378  and  _379
REMARK  159  A    between atoms: _379  and  _380
REMARK  160  A    between atoms: _385  and  _387
REMARK  161  A    between atoms: _387  and  _388
REMARK  162  A    between atoms: _387  and  _390
REMARK  163  A    between atoms: _390  and  _391
REMARK  164  A    between atoms: _394  and  _396
REMARK  165  A    between atoms: _396  and  _397
REMARK  166  A    between atoms: _396  and  _399
REMARK  167  A    between atoms: _402  and  _404
REMARK  168  A    between atoms: _404  and  _405
REMARK  169  A    between atoms: _404  and  _407
REMARK  170  A    between atoms: _407  and  _408
REMARK  171  A    between atoms: _408  and  _409
REMARK  172  A    between atoms: _409  and  _410
REMARK  173  A    between atoms: _419  and  _421
REMARK  174  A    between atoms: _421  and  _422
REMARK  175  A    between atoms: _421  and  _424
REMARK  176  A    between atoms: _424  and  _425
REMARK  177  A    between atoms: _428  and  _430
REMARK  178  A    between atoms: _430  and  _431
REMARK  179  A    between atoms: _430  and  _433
REMARK  180  A    between atoms: _433  and  _434
REMARK  181  A    between atoms: _444  and  _446
REMARK  182  A    between atoms: _446  and  _447
REMARK  183  A    between atoms: _446  and  _449
REMARK  184  A    between atoms: _449  and  _450
REMARK  185  A    between atoms: _454  and  _455
REMARK  186  A    between atoms: _460  and  _462
REMARK  187  A    between atoms: _462  and  _463
REMARK  188  A    between atoms: _462  and  _465
REMARK  189  A    between atoms: _465  and  _466
REMARK  190  A    between atoms: _472  and  _473
REMARK  191  A    between atoms: _478  and  _480
REMARK  192  A    between atoms: _480  and  _481
REMARK  193  A    between atoms: _483  and  _485
REMARK  194  A    between atoms: _485  and  _486
REMARK  195  A    between atoms: _485  and  _488
REMARK  196  A    between atoms: _488  and  _489
REMARK  197  A    between atoms: _492  and  _494
REMARK  198  A    between atoms: _494  and  _495
REMARK  199  A    between atoms: _494  and  _497
REMARK  200  A    between atoms: _497  and  _498
REMARK  201  A    between atoms: _498  and  _499
REMARK  202  A    between atoms: _499  and  _500
REMARK  203  A    between atoms: _500  and  _501
REMARK  204  A    between atoms: _505  and  _507
REMARK  205  A    between atoms: _507  and  _508
REMARK  206  A    between atoms: _507  and  _510
REMARK  207  A    between atoms: _513  and  _515
REMARK  208  A    between atoms: _515  and  _516
REMARK  209  A    between atoms: _519  and  _521
REMARK  210  A    between atoms: _521  and  _522
REMARK  211  A    between atoms: _521  and  _524
REMARK  212  A    between atoms: _524  and  _525
REMARK  213  A    between atoms: _528  and  _530
REMARK  214  A    between atoms: _530  and  _531
REMARK  215  A    between atoms: _530  and  _533
REMARK  216  A    between atoms: _533  and  _534
REMARK  217  A    between atoms: _540  and  _541
REMARK  218  A    between atoms: _546  and  _548
REMARK  219  A    between atoms: _548  and  _549
REMARK  220  A    between atoms: _548  and  _551
REMARK  221  A    between atoms: _551  and  _552
REMARK  222  A    between atoms: _558  and  _560
REMARK  223  A    between atoms: _560  and  _561
REMARK  224  A    between atoms: _560  and  _563
REMARK  225  A    between atoms: _563  and  _564
REMARK  226  A    between atoms: _567  and  _569
REMARK  227  A    between atoms: _569  and  _570
REMARK  228  A    between atoms: _572  and  _574
REMARK  229  A    between atoms: _574  and  _575
REMARK  230  A    between atoms: _574  and  _577
REMARK  231  A    between atoms: _577  and  _578
REMARK  232  A    between atoms: _581  and  _583
REMARK  233  A    between atoms: _583  and  _584
REMARK  234  A    between atoms: _583  and  _586
REMARK  235  A    between atoms: _586  and  _587
REMARK  236  A    between atoms: _593  and  _595
REMARK  237  A    between atoms: _595  and  _596
REMARK  238  A    between atoms: _595  and  _598
REMARK  239  A    between atoms: _598  and  _599
REMARK  240  A    between atoms: _599  and  _600
REMARK  241  A    between atoms: _605  and  _607
REMARK  242  A    between atoms: _607  and  _608
REMARK  243  A    between atoms: _607  and  _610
REMARK  244  A    between atoms: _610  and  _611
REMARK  245  A    between atoms: _614  and  _616
REMARK  246  A    between atoms: _616  and  _617
REMARK  247  A    between atoms: _616  and  _619
REMARK  248  A    between atoms: _619  and  _620
REMARK  249  A    between atoms: _622  and  _624
REMARK  250  A    between atoms: _624  and  _625
REMARK  251  A    between atoms: _624  and  _627
REMARK  252  A    between atoms: _627  and  _628
REMARK  253  A    between atoms: _634  and  _636
REMARK  254  A    between atoms: _636  and  _637
REMARK  255  A    between atoms: _636  and  _639
REMARK  256  A    between atoms: _639  and  _640
REMARK  257  A    between atoms: _645  and  _646
REMARK  258  A    between atoms: _648  and  _650
REMARK  259  A    between atoms: _650  and  _651
REMARK  260  A    between atoms: _650  and  _653
REMARK  261  A    between atoms: _653  and  _654
REMARK                            x       y       z     vdW  Elec       q    Type
REMARK                         _______ _______ _______ _____ _____    ______ ____
ROOT
ATOM      1  O   HOH     1      27.122   8.843 -50.307  0.00  0.00    +0.000 OA
ENDROOT
TORSDOF 0
REMARK  Name = ../refined-set-2016/4idn/4idn_pocket.pdb
REMARK  261 active torsions:
REMARK  status: ('A' for Active; 'I' for Inactive)
REMARK    1  A    between atoms: _1  and  _3
REMARK    2  A    between atoms: _3  and  _4
REMARK    3  A    between atoms: _3  and  _6
REMARK    4  A    between atoms: _9  and  _11
REMARK    5  A    between atoms: _11  and  _12
REMARK    6  A    between atoms: _15  and  _17
REMARK    7  A    between atoms: _17  and  _18
REMARK    8  A    between atoms: _20  and  _22
REMARK    9  A    between atoms: _22  and  _23
REMARK   10  A    between atoms: _26  and  _28
REMARK   11  A    between atoms: _28  and  _29
REMARK   12  A    between atoms: _28  and  _31
REMARK   13  A    between atoms: _31  and  _32
REMARK   14  A    between atoms: _38  and  _40
REMARK   15  A    between atoms: _40  and  _41
REMARK   16  A    between atoms: _40  and  _43
REMARK   17  A    between atoms: _43  and  _44
REMARK   18  A    between atoms: _44  and  _45
REMARK   19  A    between atoms: _45  and  _46
REMARK   20  A    between atoms: _55  and  _57
REMARK   21  A    between atoms: _57  and  _58
REMARK   22  A    between atoms: _57  and  _60
REMARK   23  A    between atoms: _60  and  _61
REMARK   24  A    between atoms: _61  and  _62
REMARK   25  A    between atoms: _62  and  _63
REMARK   26  A    between atoms: _63  and  _64
REMARK   27  A    between atoms: _68  and  _70
REMARK   28  A    between atoms: _70  and  _71
REMARK   29  A    between atoms: _73  and  _75
REMARK   30  A    between atoms: _75  and  _76
REMARK   31  A    between atoms: _75  and  _78
REMARK   32  A    between atoms: _78  and  _79
REMARK   33  A    between atoms: _79  and  _80
REMARK   34  A    between atoms: _80  and  _81
REMARK   35  A    between atoms: _81  and  _82
REMARK   36  A    between atoms: _86  and  _88
REMARK   37  A    between atoms: _88  and  _89
REMARK   38  A    between atoms: _88  and  _91
REMARK   39  A    between atoms: _91  and  _92
REMARK   40  A    between atoms: _94  and  _96
REMARK   41  A    between atoms: _96  and  _97
REMARK   42  A    between atoms: _96  and  _99
REMARK   43  A    between atoms: _99  and  _100
REMARK   44  A    between atoms: _106  and  _108
REMARK   45  A    between atoms: _108  and  _109
REMARK   46  A    between atoms: _108  and  _111
REMARK   47  A    between atoms: _111  and  _112
REMARK   48  A    between atoms: _115  and  _117
REMARK   49  A    between atoms: _117  and  _118
REMARK   50  A    between atoms: _117  and  _120
REMARK   51  A    between atoms: _120  and  _121
REMARK   52  A    between atoms: _121  and  _122
REMARK   53  A    between atoms: _124  and  _126
REMARK   54  A    between atoms: _126  and  _127
REMARK   55  A    between atoms: _126  and  _129
REMARK   56  A    between atoms: _129  and  _130
REMARK   57  A    between atoms: _133  and  _135
REMARK   58  A    between atoms: _135  and  _136
REMARK   59  A    between atoms: _135  and  _138
REMARK   60  A    between atoms: _138  and  _139
REMARK   61  A    between atoms: _145  and  _147
REMARK   62  A    between atoms: _147  and  _148
REMARK   63  A    between atoms: _147  and  _150
REMARK   64  A    between atoms: _150  and  _151
REMARK   65  A    between atoms: _154  and  _156
REMARK   66  A    between atoms: _156  and  _157
REMARK   67  A    between atoms: _156  and  _159
REMARK   68  A    between atoms: _159  and  _160
REMARK   69  A    between atoms: _166  and  _168
REMARK   70  A    between atoms: _168  and  _169
REMARK   71  A    between atoms: _168  and  _171
REMARK   72  A    between atoms: _171  and  _172
REMARK   73  A    between atoms: _174  and  _176
REMARK   74  A    between atoms: _176  and  _177
REMARK   75  A    between atoms: _176  and  _179
REMARK   76  A    between atoms: _179  and  _180
REMARK   77  A    between atoms: _190  and  _192
REMARK   78  A    between atoms: _192  and  _193
REMARK   79  A    between atoms: _192  and  _195
REMARK   80  A    between atoms: _195  and  _196
REMARK   81  A    between atoms: _196  and  _197
REMARK   82  A    between atoms: _197  and  _198
REMARK   83  A    between atoms: _207  and  _209
REMARK   84  A    between atoms: _209  and  _210
REMARK   85  A    between atoms: _212  and  _214
REMARK   86  A    between atoms: _214  and  _215
REMARK   87  A    between atoms: _217  and  _219
REMARK   88  A    between atoms: _219  and  _220
REMARK   89  A    between atoms: _219  and  _222
REMARK   90  A    between atoms: _222  and  _223
REMARK   91  A    between atoms: _225  and  _227
REMARK   92  A    between atoms: _227  and  _228
REMARK   93  A    between atoms: _227  and  _230
REMARK   94  A    between atoms: _230  and  _231
REMARK   95  A    between atoms: _231  and  _232
REMARK   96  A    between atoms: _235  and  _237
REMARK   97  A    between atoms: _237  and  _238
REMARK   98  A    between atoms: _237  and  _240
REMARK   99  A    between atoms: _240  and  _241
REMARK  100  A    between atoms: _241  and  _242
REMARK  101  A    between atoms: _242  and  _243
REMARK  102  A    between atoms: _252  and  _254
REMARK  103  A    between atoms: _254  and  _255
REMARK  104  A    between atoms: _254  and  _257
REMARK  105  A    between atoms: _257  and  _258
REMARK  106  A    between atoms: _258  and  _259
REMARK  107  A    between atoms: _262  and  _264
REMARK  108  A    between atoms: _264  and  _265
REMARK  109  A    between atoms: _264  and  _267
REMARK  110  A    between atoms: _267  and  _268
REMARK  111  A    between atoms: _271  and  _273
REMARK  112  A    between atoms: _273  and  _274
REMARK  113  A    between atoms: _273  and  _276
REMARK  114  A    between atoms: _276  and  _277
REMARK  115  A    between atoms: _280  and  _282
REMARK  116  A    between atoms: _282  and  _283
REMARK  117  A    between atoms: _282  and  _285
REMARK  118  A    between atoms: _285  and  _286
REMARK  119  A    between atoms: _286  and  _287
REMARK  120  A    between atoms: _292  and  _294
REMARK  121  A    between atoms: _294  and  _295
REMARK  122  A    between atoms: _294  and  _297
REMARK  123  A    between atoms: _297  and  _298
REMARK  124  A    between atoms: _301  and  _303
REMARK  125  A    between atoms: _303  and  _304
REMARK  126  A    between atoms: _303  and  _306
REMARK  127  A    between atoms: _306  and  _307
REMARK  128  A    between atoms: _310  and  _312
REMARK  129  A    between atoms: _312  and  _313
REMARK  130  A    between atoms: _312  and  _315
REMARK  131  A    between atoms: _315  and  _316
REMARK  132  A    between atoms: _316  and  _317
REMARK  133  A    between atoms: _322  and  _324
REMARK  134  A    between atoms: _324  and  _325
REMARK  135  A    between atoms: _327  and  _329
REMARK  136  A    between atoms: _329  and  _330
REMARK  137  A    between atoms: _329  and  _332
REMARK  138  A    between atoms: _332  and  _333
REMARK  139  A    between atoms: _336  and  _338
REMARK  140  A    between atoms: _338  and  _339
REMARK  141  A    between atoms: _338  and  _341
REMARK  142  A    between atoms: _341  and  _342
REMARK  143  A    between atoms: _345  and  _347
REMARK  144  A    between atoms: _347  and  _348
REMARK  145  A    between atoms: _347  and  _350
REMARK  146  A    between atoms: _350  and  _351
REMARK  147  A    between atoms: _356  and  _358
REMARK  148  A    between atoms: _358  and  _359
REMARK  149  A    between atoms: _358  and  _361
REMARK  150  A    between atoms: _361  and  _362
REMARK  151  A    between atoms: _365  and  _367
REMARK  152  A    between atoms: _367  and  _368
REMARK  153  A    between atoms: _367  and  _370
REMARK  154  A    between atoms: _370  and  _371
REMARK  155  A    between atoms: _373  and  _375
REMARK  156  A    between atoms: _375  and  _376
REMARK  157  A    between atoms: _375  and  _378
REMARK  158  A    between atoms: _378  and  _379
REMARK  159  A    between atoms: _379  and  _380
REMARK  160  A    between atoms: _385  and  _387
REMARK  161  A    between atoms: _387  and  _388
REMARK  162  A    between atoms: _387  and  _390
REMARK  163  A    between atoms: _390  and  _391
REMARK  164  A    between atoms: _394  and  _396
REMARK  165  A    between atoms: _396  and  _397
REMARK  166  A    between atoms: _396  and  _399
REMARK  167  A    between atoms: _402  and  _404
REMARK  168  A    between atoms: _404  and  _405
REMARK  169  A    between atoms: _404  and  _407
REMARK  170  A    between atoms: _407  and  _408
REMARK  171  A    between atoms: _408  and  _409
REMARK  172  A    between atoms: _409  and  _410
REMARK  173  A    between atoms: _419  and  _421
REMARK  174  A    between atoms: _421  and  _422
REMARK  175  A    between atoms: _421  and  _424
REMARK  176  A    between atoms: _424  and  _425
REMARK  177  A    between atoms: _428  and  _430
REMARK  178  A    between atoms: _430  and  _431
REMARK  179  A    between atoms: _430  and  _433
REMARK  180  A    between atoms: _433  and  _434
REMARK  181  A    between atoms: _444  and  _446
REMARK  182  A    between atoms: _446  and  _447
REMARK  183  A    between atoms: _446  and  _449
REMARK  184  A    between atoms: _449  and  _450
REMARK  185  A    between atoms: _454  and  _455
REMARK  186  A    between atoms: _460  and  _462
REMARK  187  A    between atoms: _462  and  _463
REMARK  188  A    between atoms: _462  and  _465
REMARK  189  A    between atoms: _465  and  _466
REMARK  190  A    between atoms: _472  and  _473
REMARK  191  A    between atoms: _478  and  _480
REMARK  192  A    between atoms: _480  and  _481
REMARK  193  A    between atoms: _483  and  _485
REMARK  194  A    between atoms: _485  and  _486
REMARK  195  A    between atoms: _485  and  _488
REMARK  196  A    between atoms: _488  and  _489
REMARK  197  A    between atoms: _492  and  _494
REMARK  198  A    between atoms: _494  and  _495
REMARK  199  A    between atoms: _494  and  _497
REMARK  200  A    between atoms: _497  and  _498
REMARK  201  A    between atoms: _498  and  _499
REMARK  202  A    between atoms: _499  and  _500
REMARK  203  A    between atoms: _500  and  _501
REMARK  204  A    between atoms: _505  and  _507
REMARK  205  A    between atoms: _507  and  _508
REMARK  206  A    between atoms: _507  and  _510
REMARK  207  A    between atoms: _513  and  _515
REMARK  208  A    between atoms: _515  and  _516
REMARK  209  A    between atoms: _519  and  _521
REMARK  210  A    between atoms: _521  and  _522
REMARK  211  A    between atoms: _521  and  _524
REMARK  212  A    between atoms: _524  and  _525
REMARK  213  A    between atoms: _528  and  _530
REMARK  214  A    between atoms: _530  and  _531
REMARK  215  A    between atoms: _530  and  _533
REMARK  216  A    between atoms: _533  and  _534
REMARK  217  A    between atoms: _540  and  _541
REMARK  218  A    between atoms: _546  and  _548
REMARK  219  A    between atoms: _548  and  _549
REMARK  220  A    between atoms: _548  and  _551
REMARK  221  A    between atoms: _551  and  _552
REMARK  222  A    between atoms: _558  and  _560
REMARK  223  A    between atoms: _560  and  _561
REMARK  224  A    between atoms: _560  and  _563
REMARK  225  A    between atoms: _563  and  _564
REMARK  226  A    between atoms: _567  and  _569
REMARK  227  A    between atoms: _569  and  _570
REMARK  228  A    between atoms: _572  and  _574
REMARK  229  A    between atoms: _574  and  _575
REMARK  230  A    between atoms: _574  and  _577
REMARK  231  A    between atoms: _577  and  _578
REMARK  232  A    between atoms: _581  and  _583
REMARK  233  A    between atoms: _583  and  _584
REMARK  234  A    between atoms: _583  and  _586
REMARK  235  A    between atoms: _586  and  _587
REMARK  236  A    between atoms: _593  and  _595
REMARK  237  A    between atoms: _595  and  _596
REMARK  238  A    between atoms: _595  and  _598
REMARK  239  A    between atoms: _598  and  _599
REMARK  240  A    between atoms: _599  and  _600
REMARK  241  A    between atoms: _605  and  _607
REMARK  242  A    between atoms: _607  and  _608
REMARK  243  A    between atoms: _607  and  _610
REMARK  244  A    between atoms: _610  and  _611
REMARK  245  A    between atoms: _614  and  _616
REMARK  246  A    between atoms: _616  and  _617
REMARK  247  A    between atoms: _616  and  _619
REMARK  248  A    between atoms: _619  and  _620
REMARK  249  A    between atoms: _622  and  _624
REMARK  250  A    between atoms: _624  and  _625
REMARK  251  A    between atoms: _624  and  _627
REMARK  252  A    between atoms: _627  and  _628
REMARK  253  A    between atoms: _634  and  _636
REMARK  254  A    between atoms: _636  and  _637
REMARK  255  A    between atoms: _636  and  _639
REMARK  256  A    between atoms: _639  and  _640
REMARK  257  A    between atoms: _645  and  _646
REMARK  258  A    between atoms: _648  and  _650
REMARK  259  A    between atoms: _650  and  _651
REMARK  260  A    between atoms: _650  and  _653
REMARK  261  A    between atoms: _653  and  _654
REMARK                            x       y       z     vdW  Elec       q    Type
REMARK                         _______ _______ _______ _____ _____    ______ ____
ROOT
ATOM      1  O   HOH     1      27.885   6.397 -42.806  0.00  0.00    +0.000 OA
ENDROOT
TORSDOF 0
REMARK  Name = ../refined-set-2016/4idn/4idn_pocket.pdb
REMARK  261 active torsions:
REMARK  status: ('A' for Active; 'I' for Inactive)
REMARK    1  A    between atoms: _1  and  _3
REMARK    2  A    between atoms: _3  and  _4
REMARK    3  A    between atoms: _3  and  _6
REMARK    4  A    between atoms: _9  and  _11
REMARK    5  A    between atoms: _11  and  _12
REMARK    6  A    between atoms: _15  and  _17
REMARK    7  A    between atoms: _17  and  _18
REMARK    8  A    between atoms: _20  and  _22
REMARK    9  A    between atoms: _22  and  _23
REMARK   10  A    between atoms: _26  and  _28
REMARK   11  A    between atoms: _28  and  _29
REMARK   12  A    between atoms: _28  and  _31
REMARK   13  A    between atoms: _31  and  _32
REMARK   14  A    between atoms: _38  and  _40
REMARK   15  A    between atoms: _40  and  _41
REMARK   16  A    between atoms: _40  and  _43
REMARK   17  A    between atoms: _43  and  _44
REMARK   18  A    between atoms: _44  and  _45
REMARK   19  A    between atoms: _45  and  _46
REMARK   20  A    between atoms: _55  and  _57
REMARK   21  A    between atoms: _57  and  _58
REMARK   22  A    between atoms: _57  and  _60
REMARK   23  A    between atoms: _60  and  _61
REMARK   24  A    between atoms: _61  and  _62
REMARK   25  A    between atoms: _62  and  _63
REMARK   26  A    between atoms: _63  and  _64
REMARK   27  A    between atoms: _68  and  _70
REMARK   28  A    between atoms: _70  and  _71
REMARK   29  A    between atoms: _73  and  _75
REMARK   30  A    between atoms: _75  and  _76
REMARK   31  A    between atoms: _75  and  _78
REMARK   32  A    between atoms: _78  and  _79
REMARK   33  A    between atoms: _79  and  _80
REMARK   34  A    between atoms: _80  and  _81
REMARK   35  A    between atoms: _81  and  _82
REMARK   36  A    between atoms: _86  and  _88
REMARK   37  A    between atoms: _88  and  _89
REMARK   38  A    between atoms: _88  and  _91
REMARK   39  A    between atoms: _91  and  _92
REMARK   40  A    between atoms: _94  and  _96
REMARK   41  A    between atoms: _96  and  _97
REMARK   42  A    between atoms: _96  and  _99
REMARK   43  A    between atoms: _99  and  _100
REMARK   44  A    between atoms: _106  and  _108
REMARK   45  A    between atoms: _108  and  _109
REMARK   46  A    between atoms: _108  and  _111
REMARK   47  A    between atoms: _111  and  _112
REMARK   48  A    between atoms: _115  and  _117
REMARK   49  A    between atoms: _117  and  _118
REMARK   50  A    between atoms: _117  and  _120
REMARK   51  A    between atoms: _120  and  _121
REMARK   52  A    between atoms: _121  and  _122
REMARK   53  A    between atoms: _124  and  _126
REMARK   54  A    between atoms: _126  and  _127
REMARK   55  A    between atoms: _126  and  _129
REMARK   56  A    between atoms: _129  and  _130
REMARK   57  A    between atoms: _133  and  _135
REMARK   58  A    between atoms: _135  and  _136
REMARK   59  A    between atoms: _135  and  _138
REMARK   60  A    between atoms: _138  and  _139
REMARK   61  A    between atoms: _145  and  _147
REMARK   62  A    between atoms: _147  and  _148
REMARK   63  A    between atoms: _147  and  _150
REMARK   64  A    between atoms: _150  and  _151
REMARK   65  A    between atoms: _154  and  _156
REMARK   66  A    between atoms: _156  and  _157
REMARK   67  A    between atoms: _156  and  _159
REMARK   68  A    between atoms: _159  and  _160
REMARK   69  A    between atoms: _166  and  _168
REMARK   70  A    between atoms: _168  and  _169
REMARK   71  A    between atoms: _168  and  _171
REMARK   72  A    between atoms: _171  and  _172
REMARK   73  A    between atoms: _174  and  _176
REMARK   74  A    between atoms: _176  and  _177
REMARK   75  A    between atoms: _176  and  _179
REMARK   76  A    between atoms: _179  and  _180
REMARK   77  A    between atoms: _190  and  _192
REMARK   78  A    between atoms: _192  and  _193
REMARK   79  A    between atoms: _192  and  _195
REMARK   80  A    between atoms: _195  and  _196
REMARK   81  A    between atoms: _196  and  _197
REMARK   82  A    between atoms: _197  and  _198
REMARK   83  A    between atoms: _207  and  _209
REMARK   84  A    between atoms: _209  and  _210
REMARK   85  A    between atoms: _212  and  _214
REMARK   86  A    between atoms: _214  and  _215
REMARK   87  A    between atoms: _217  and  _219
REMARK   88  A    between atoms: _219  and  _220
REMARK   89  A    between atoms: _219  and  _222
REMARK   90  A    between atoms: _222  and  _223
REMARK   91  A    between atoms: _225  and  _227
REMARK   92  A    between atoms: _227  and  _228
REMARK   93  A    between atoms: _227  and  _230
REMARK   94  A    between atoms: _230  and  _231
REMARK   95  A    between atoms: _231  and  _232
REMARK   96  A    between atoms: _235  and  _237
REMARK   97  A    between atoms: _237  and  _238
REMARK   98  A    between atoms: _237  and  _240
REMARK   99  A    between atoms: _240  and  _241
REMARK  100  A    between atoms: _241  and  _242
REMARK  101  A    between atoms: _242  and  _243
REMARK  102  A    between atoms: _252  and  _254
REMARK  103  A    between atoms: _254  and  _255
REMARK  104  A    between atoms: _254  and  _257
REMARK  105  A    between atoms: _257  and  _258
REMARK  106  A    between atoms: _258  and  _259
REMARK  107  A    between atoms: _262  and  _264
REMARK  108  A    between atoms: _264  and  _265
REMARK  109  A    between atoms: _264  and  _267
REMARK  110  A    between atoms: _267  and  _268
REMARK  111  A    between atoms: _271  and  _273
REMARK  112  A    between atoms: _273  and  _274
REMARK  113  A    between atoms: _273  and  _276
REMARK  114  A    between atoms: _276  and  _277
REMARK  115  A    between atoms: _280  and  _282
REMARK  116  A    between atoms: _282  and  _283
REMARK  117  A    between atoms: _282  and  _285
REMARK  118  A    between atoms: _285  and  _286
REMARK  119  A    between atoms: _286  and  _287
REMARK  120  A    between atoms: _292  and  _294
REMARK  121  A    between atoms: _294  and  _295
REMARK  122  A    between atoms: _294  and  _297
REMARK  123  A    between atoms: _297  and  _298
REMARK  124  A    between atoms: _301  and  _303
REMARK  125  A    between atoms: _303  and  _304
REMARK  126  A    between atoms: _303  and  _306
REMARK  127  A    between atoms: _306  and  _307
REMARK  128  A    between atoms: _310  and  _312
REMARK  129  A    between atoms: _312  and  _313
REMARK  130  A    between atoms: _312  and  _315
REMARK  131  A    between atoms: _315  and  _316
REMARK  132  A    between atoms: _316  and  _317
REMARK  133  A    between atoms: _322  and  _324
REMARK  134  A    between atoms: _324  and  _325
REMARK  135  A    between atoms: _327  and  _329
REMARK  136  A    between atoms: _329  and  _330
REMARK  137  A    between atoms: _329  and  _332
REMARK  138  A    between atoms: _332  and  _333
REMARK  139  A    between atoms: _336  and  _338
REMARK  140  A    between atoms: _338  and  _339
REMARK  141  A    between atoms: _338  and  _341
REMARK  142  A    between atoms: _341  and  _342
REMARK  143  A    between atoms: _345  and  _347
REMARK  144  A    between atoms: _347  and  _348
REMARK  145  A    between atoms: _347  and  _350
REMARK  146  A    between atoms: _350  and  _351
REMARK  147  A    between atoms: _356  and  _358
REMARK  148  A    between atoms: _358  and  _359
REMARK  149  A    between atoms: _358  and  _361
REMARK  150  A    between atoms: _361  and  _362
REMARK  151  A    between atoms: _365  and  _367
REMARK  152  A    between atoms: _367  and  _368
REMARK  153  A    between atoms: _367  and  _370
REMARK  154  A    between atoms: _370  and  _371
REMARK  155  A    between atoms: _373  and  _375
REMARK  156  A    between atoms: _375  and  _376
REMARK  157  A    between atoms: _375  and  _378
REMARK  158  A    between atoms: _378  and  _379
REMARK  159  A    between atoms: _379  and  _380
REMARK  160  A    between atoms: _385  and  _387
REMARK  161  A    between atoms: _387  and  _388
REMARK  162  A    between atoms: _387  and  _390
REMARK  163  A    between atoms: _390  and  _391
REMARK  164  A    between atoms: _394  and  _396
REMARK  165  A    between atoms: _396  and  _397
REMARK  166  A    between atoms: _396  and  _399
REMARK  167  A    between atoms: _402  and  _404
REMARK  168  A    between atoms: _404  and  _405
REMARK  169  A    between atoms: _404  and  _407
REMARK  170  A    between atoms: _407  and  _408
REMARK  171  A    between atoms: _408  and  _409
REMARK  172  A    between atoms: _409  and  _410
REMARK  173  A    between atoms: _419  and  _421
REMARK  174  A    between atoms: _421  and  _422
REMARK  175  A    between atoms: _421  and  _424
REMARK  176  A    between atoms: _424  and  _425
REMARK  177  A    between atoms: _428  and  _430
REMARK  178  A    between atoms: _430  and  _431
REMARK  179  A    between atoms: _430  and  _433
REMARK  180  A    between atoms: _433  and  _434
REMARK  181  A    between atoms: _444  and  _446
REMARK  182  A    between atoms: _446  and  _447
REMARK  183  A    between atoms: _446  and  _449
REMARK  184  A    between atoms: _449  and  _450
REMARK  185  A    between atoms: _454  and  _455
REMARK  186  A    between atoms: _460  and  _462
REMARK  187  A    between atoms: _462  and  _463
REMARK  188  A    between atoms: _462  and  _465
REMARK  189  A    between atoms: _465  and  _466
REMARK  190  A    between atoms: _472  and  _473
REMARK  191  A    between atoms: _478  and  _480
REMARK  192  A    between atoms: _480  and  _481
REMARK  193  A    between atoms: _483  and  _485
REMARK  194  A    between atoms: _485  and  _486
REMARK  195  A    between atoms: _485  and  _488
REMARK  196  A    between atoms: _488  and  _489
REMARK  197  A    between atoms: _492  and  _494
REMARK  198  A    between atoms: _494  and  _495
REMARK  199  A    between atoms: _494  and  _497
REMARK  200  A    between atoms: _497  and  _498
REMARK  201  A    between atoms: _498  and  _499
REMARK  202  A    between atoms: _499  and  _500
REMARK  203  A    between atoms: _500  and  _501
REMARK  204  A    between atoms: _505  and  _507
REMARK  205  A    between atoms: _507  and  _508
REMARK  206  A    between atoms: _507  and  _510
REMARK  207  A    between atoms: _513  and  _515
REMARK  208  A    between atoms: _515  and  _516
REMARK  209  A    between atoms: _519  and  _521
REMARK  210  A    between atoms: _521  and  _522
REMARK  211  A    between atoms: _521  and  _524
REMARK  212  A    between atoms: _524  and  _525
REMARK  213  A    between atoms: _528  and  _530
REMARK  214  A    between atoms: _530  and  _531
REMARK  215  A    between atoms: _530  and  _533
REMARK  216  A    between atoms: _533  and  _534
REMARK  217  A    between atoms: _540  and  _541
REMARK  218  A    between atoms: _546  and  _548
REMARK  219  A    between atoms: _548  and  _549
REMARK  220  A    between atoms: _548  and  _551
REMARK  221  A    between atoms: _551  and  _552
REMARK  222  A    between atoms: _558  and  _560
REMARK  223  A    between atoms: _560  and  _561
REMARK  224  A    between atoms: _560  and  _563
REMARK  225  A    between atoms: _563  and  _564
REMARK  226  A    between atoms: _567  and  _569
REMARK  227  A    between atoms: _569  and  _570
REMARK  228  A    between atoms: _572  and  _574
REMARK  229  A    between atoms: _574  and  _575
REMARK  230  A    between atoms: _574  and  _577
REMARK  231  A    between atoms: _577  and  _578
REMARK  232  A    between atoms: _581  and  _583
REMARK  233  A    between atoms: _583  and  _584
REMARK  234  A    between atoms: _583  and  _586
REMARK  235  A    between atoms: _586  and  _587
REMARK  236  A    between atoms: _593  and  _595
REMARK  237  A    between atoms: _595  and  _596
REMARK  238  A    between atoms: _595  and  _598
REMARK  239  A    between atoms: _598  and  _599
REMARK  240  A    between atoms: _599  and  _600
REMARK  241  A    between atoms: _605  and  _607
REMARK  242  A    between atoms: _607  and  _608
REMARK  243  A    between atoms: _607  and  _610
REMARK  244  A    between atoms: _610  and  _611
REMARK  245  A    between atoms: _614  and  _616
REMARK  246  A    between atoms: _616  and  _617
REMARK  247  A    between atoms: _616  and  _619
REMARK  248  A    between atoms: _619  and  _620
REMARK  249  A    between atoms: _622  and  _624
REMARK  250  A    between atoms: _624  and  _625
REMARK  251  A    between atoms: _624  and  _627
REMARK  252  A    between atoms: _627  and  _628
REMARK  253  A    between atoms: _634  and  _636
REMARK  254  A    between atoms: _636  and  _637
REMARK  255  A    between atoms: _636  and  _639
REMARK  256  A    between atoms: _639  and  _640
REMARK  257  A    between atoms: _645  and  _646
REMARK  258  A    between atoms: _648  and  _650
REMARK  259  A    between atoms: _650  and  _651
REMARK  260  A    between atoms: _650  and  _653
REMARK  261  A    between atoms: _653  and  _654
REMARK                            x       y       z     vdW  Elec       q    Type
REMARK                         _______ _______ _______ _____ _____    ______ ____
ROOT
ATOM      1  O   HOH     1      34.044   4.082 -42.138  0.00  0.00    +0.000 OA
ENDROOT
TORSDOF 0
REMARK  Name = ../refined-set-2016/4idn/4idn_pocket.pdb
REMARK  261 active torsions:
REMARK  status: ('A' for Active; 'I' for Inactive)
REMARK    1  A    between atoms: _1  and  _3
REMARK    2  A    between atoms: _3  and  _4
REMARK    3  A    between atoms: _3  and  _6
REMARK    4  A    between atoms: _9  and  _11
REMARK    5  A    between atoms: _11  and  _12
REMARK    6  A    between atoms: _15  and  _17
REMARK    7  A    between atoms: _17  and  _18
REMARK    8  A    between atoms: _20  and  _22
REMARK    9  A    between atoms: _22  and  _23
REMARK   10  A    between atoms: _26  and  _28
REMARK   11  A    between atoms: _28  and  _29
REMARK   12  A    between atoms: _28  and  _31
REMARK   13  A    between atoms: _31  and  _32
REMARK   14  A    between atoms: _38  and  _40
REMARK   15  A    between atoms: _40  and  _41
REMARK   16  A    between atoms: _40  and  _43
REMARK   17  A    between atoms: _43  and  _44
REMARK   18  A    between atoms: _44  and  _45
REMARK   19  A    between atoms: _45  and  _46
REMARK   20  A    between atoms: _55  and  _57
REMARK   21  A    between atoms: _57  and  _58
REMARK   22  A    between atoms: _57  and  _60
REMARK   23  A    between atoms: _60  and  _61
REMARK   24  A    between atoms: _61  and  _62
REMARK   25  A    between atoms: _62  and  _63
REMARK   26  A    between atoms: _63  and  _64
REMARK   27  A    between atoms: _68  and  _70
REMARK   28  A    between atoms: _70  and  _71
REMARK   29  A    between atoms: _73  and  _75
REMARK   30  A    between atoms: _75  and  _76
REMARK   31  A    between atoms: _75  and  _78
REMARK   32  A    between atoms: _78  and  _79
REMARK   33  A    between atoms: _79  and  _80
REMARK   34  A    between atoms: _80  and  _81
REMARK   35  A    between atoms: _81  and  _82
REMARK   36  A    between atoms: _86  and  _88
REMARK   37  A    between atoms: _88  and  _89
REMARK   38  A    between atoms: _88  and  _91
REMARK   39  A    between atoms: _91  and  _92
REMARK   40  A    between atoms: _94  and  _96
REMARK   41  A    between atoms: _96  and  _97
REMARK   42  A    between atoms: _96  and  _99
REMARK   43  A    between atoms: _99  and  _100
REMARK   44  A    between atoms: _106  and  _108
REMARK   45  A    between atoms: _108  and  _109
REMARK   46  A    between atoms: _108  and  _111
REMARK   47  A    between atoms: _111  and  _112
REMARK   48  A    between atoms: _115  and  _117
REMARK   49  A    between atoms: _117  and  _118
REMARK   50  A    between atoms: _117  and  _120
REMARK   51  A    between atoms: _120  and  _121
REMARK   52  A    between atoms: _121  and  _122
REMARK   53  A    between atoms: _124  and  _126
REMARK   54  A    between atoms: _126  and  _127
REMARK   55  A    between atoms: _126  and  _129
REMARK   56  A    between atoms: _129  and  _130
REMARK   57  A    between atoms: _133  and  _135
REMARK   58  A    between atoms: _135  and  _136
REMARK   59  A    between atoms: _135  and  _138
REMARK   60  A    between atoms: _138  and  _139
REMARK   61  A    between atoms: _145  and  _147
REMARK   62  A    between atoms: _147  and  _148
REMARK   63  A    between atoms: _147  and  _150
REMARK   64  A    between atoms: _150  and  _151
REMARK   65  A    between atoms: _154  and  _156
REMARK   66  A    between atoms: _156  and  _157
REMARK   67  A    between atoms: _156  and  _159
REMARK   68  A    between atoms: _159  and  _160
REMARK   69  A    between atoms: _166  and  _168
REMARK   70  A    between atoms: _168  and  _169
REMARK   71  A    between atoms: _168  and  _171
REMARK   72  A    between atoms: _171  and  _172
REMARK   73  A    between atoms: _174  and  _176
REMARK   74  A    between atoms: _176  and  _177
REMARK   75  A    between atoms: _176  and  _179
REMARK   76  A    between atoms: _179  and  _180
REMARK   77  A    between atoms: _190  and  _192
REMARK   78  A    between atoms: _192  and  _193
REMARK   79  A    between atoms: _192  and  _195
REMARK   80  A    between atoms: _195  and  _196
REMARK   81  A    between atoms: _196  and  _197
REMARK   82  A    between atoms: _197  and  _198
REMARK   83  A    between atoms: _207  and  _209
REMARK   84  A    between atoms: _209  and  _210
REMARK   85  A    between atoms: _212  and  _214
REMARK   86  A    between atoms: _214  and  _215
REMARK   87  A    between atoms: _217  and  _219
REMARK   88  A    between atoms: _219  and  _220
REMARK   89  A    between atoms: _219  and  _222
REMARK   90  A    between atoms: _222  and  _223
REMARK   91  A    between atoms: _225  and  _227
REMARK   92  A    between atoms: _227  and  _228
REMARK   93  A    between atoms: _227  and  _230
REMARK   94  A    between atoms: _230  and  _231
REMARK   95  A    between atoms: _231  and  _232
REMARK   96  A    between atoms: _235  and  _237
REMARK   97  A    between atoms: _237  and  _238
REMARK   98  A    between atoms: _237  and  _240
REMARK   99  A    between atoms: _240  and  _241
REMARK  100  A    between atoms: _241  and  _242
REMARK  101  A    between atoms: _242  and  _243
REMARK  102  A    between atoms: _252  and  _254
REMARK  103  A    between atoms: _254  and  _255
REMARK  104  A    between atoms: _254  and  _257
REMARK  105  A    between atoms: _257  and  _258
REMARK  106  A    between atoms: _258  and  _259
REMARK  107  A    between atoms: _262  and  _264
REMARK  108  A    between atoms: _264  and  _265
REMARK  109  A    between atoms: _264  and  _267
REMARK  110  A    between atoms: _267  and  _268
REMARK  111  A    between atoms: _271  and  _273
REMARK  112  A    between atoms: _273  and  _274
REMARK  113  A    between atoms: _273  and  _276
REMARK  114  A    between atoms: _276  and  _277
REMARK  115  A    between atoms: _280  and  _282
REMARK  116  A    between atoms: _282  and  _283
REMARK  117  A    between atoms: _282  and  _285
REMARK  118  A    between atoms: _285  and  _286
REMARK  119  A    between atoms: _286  and  _287
REMARK  120  A    between atoms: _292  and  _294
REMARK  121  A    between atoms: _294  and  _295
REMARK  122  A    between atoms: _294  and  _297
REMARK  123  A    between atoms: _297  and  _298
REMARK  124  A    between atoms: _301  and  _303
REMARK  125  A    between atoms: _303  and  _304
REMARK  126  A    between atoms: _303  and  _306
REMARK  127  A    between atoms: _306  and  _307
REMARK  128  A    between atoms: _310  and  _312
REMARK  129  A    between atoms: _312  and  _313
REMARK  130  A    between atoms: _312  and  _315
REMARK  131  A    between atoms: _315  and  _316
REMARK  132  A    between atoms: _316  and  _317
REMARK  133  A    between atoms: _322  and  _324
REMARK  134  A    between atoms: _324  and  _325
REMARK  135  A    between atoms: _327  and  _329
REMARK  136  A    between atoms: _329  and  _330
REMARK  137  A    between atoms: _329  and  _332
REMARK  138  A    between atoms: _332  and  _333
REMARK  139  A    between atoms: _336  and  _338
REMARK  140  A    between atoms: _338  and  _339
REMARK  141  A    between atoms: _338  and  _341
REMARK  142  A    between atoms: _341  and  _342
REMARK  143  A    between atoms: _345  and  _347
REMARK  144  A    between atoms: _347  and  _348
REMARK  145  A    between atoms: _347  and  _350
REMARK  146  A    between atoms: _350  and  _351
REMARK  147  A    between atoms: _356  and  _358
REMARK  148  A    between atoms: _358  and  _359
REMARK  149  A    between atoms: _358  and  _361
REMARK  150  A    between atoms: _361  and  _362
REMARK  151  A    between atoms: _365  and  _367
REMARK  152  A    between atoms: _367  and  _368
REMARK  153  A    between atoms: _367  and  _370
REMARK  154  A    between atoms: _370  and  _371
REMARK  155  A    between atoms: _373  and  _375
REMARK  156  A    between atoms: _375  and  _376
REMARK  157  A    between atoms: _375  and  _378
REMARK  158  A    between atoms: _378  and  _379
REMARK  159  A    between atoms: _379  and  _380
REMARK  160  A    between atoms: _385  and  _387
REMARK  161  A    between atoms: _387  and  _388
REMARK  162  A    between atoms: _387  and  _390
REMARK  163  A    between atoms: _390  and  _391
REMARK  164  A    between atoms: _394  and  _396
REMARK  165  A    between atoms: _396  and  _397
REMARK  166  A    between atoms: _396  and  _399
REMARK  167  A    between atoms: _402  and  _404
REMARK  168  A    between atoms: _404  and  _405
REMARK  169  A    between atoms: _404  and  _407
REMARK  170  A    between atoms: _407  and  _408
REMARK  171  A    between atoms: _408  and  _409
REMARK  172  A    between atoms: _409  and  _410
REMARK  173  A    between atoms: _419  and  _421
REMARK  174  A    between atoms: _421  and  _422
REMARK  175  A    between atoms: _421  and  _424
REMARK  176  A    between atoms: _424  and  _425
REMARK  177  A    between atoms: _428  and  _430
REMARK  178  A    between atoms: _430  and  _431
REMARK  179  A    between atoms: _430  and  _433
REMARK  180  A    between atoms: _433  and  _434
REMARK  181  A    between atoms: _444  and  _446
REMARK  182  A    between atoms: _446  and  _447
REMARK  183  A    between atoms: _446  and  _449
REMARK  184  A    between atoms: _449  and  _450
REMARK  185  A    between atoms: _454  and  _455
REMARK  186  A    between atoms: _460  and  _462
REMARK  187  A    between atoms: _462  and  _463
REMARK  188  A    between atoms: _462  and  _465
REMARK  189  A    between atoms: _465  and  _466
REMARK  190  A    between atoms: _472  and  _473
REMARK  191  A    between atoms: _478  and  _480
REMARK  192  A    between atoms: _480  and  _481
REMARK  193  A    between atoms: _483  and  _485
REMARK  194  A    between atoms: _485  and  _486
REMARK  195  A    between atoms: _485  and  _488
REMARK  196  A    between atoms: _488  and  _489
REMARK  197  A    between atoms: _492  and  _494
REMARK  198  A    between atoms: _494  and  _495
REMARK  199  A    between atoms: _494  and  _497
REMARK  200  A    between atoms: _497  and  _498
REMARK  201  A    between atoms: _498  and  _499
REMARK  202  A    between atoms: _499  and  _500
REMARK  203  A    between atoms: _500  and  _501
REMARK  204  A    between atoms: _505  and  _507
REMARK  205  A    between atoms: _507  and  _508
REMARK  206  A    between atoms: _507  and  _510
REMARK  207  A    between atoms: _513  and  _515
REMARK  208  A    between atoms: _515  and  _516
REMARK  209  A    between atoms: _519  and  _521
REMARK  210  A    between atoms: _521  and  _522
REMARK  211  A    between atoms: _521  and  _524
REMARK  212  A    between atoms: _524  and  _525
REMARK  213  A    between atoms: _528  and  _530
REMARK  214  A    between atoms: _530  and  _531
REMARK  215  A    between atoms: _530  and  _533
REMARK  216  A    between atoms: _533  and  _534
REMARK  217  A    between atoms: _540  and  _541
REMARK  218  A    between atoms: _546  and  _548
REMARK  219  A    between atoms: _548  and  _549
REMARK  220  A    between atoms: _548  and  _551
REMARK  221  A    between atoms: _551  and  _552
REMARK  222  A    between atoms: _558  and  _560
REMARK  223  A    between atoms: _560  and  _561
REMARK  224  A    between atoms: _560  and  _563
REMARK  225  A    between atoms: _563  and  _564
REMARK  226  A    between atoms: _567  and  _569
REMARK  227  A    between atoms: _569  and  _570
REMARK  228  A    between atoms: _572  and  _574
REMARK  229  A    between atoms: _574  and  _575
REMARK  230  A    between atoms: _574  and  _577
REMARK  231  A    between atoms: _577  and  _578
REMARK  232  A    between atoms: _581  and  _583
REMARK  233  A    between atoms: _583  and  _584
REMARK  234  A    between atoms: _583  and  _586
REMARK  235  A    between atoms: _586  and  _587
REMARK  236  A    between atoms: _593  and  _595
REMARK  237  A    between atoms: _595  and  _596
REMARK  238  A    between atoms: _595  and  _598
REMARK  239  A    between atoms: _598  and  _599
REMARK  240  A    between atoms: _599  and  _600
REMARK  241  A    between atoms: _605  and  _607
REMARK  242  A    between atoms: _607  and  _608
REMARK  243  A    between atoms: _607  and  _610
REMARK  244  A    between atoms: _610  and  _611
REMARK  245  A    between atoms: _614  and  _616
REMARK  246  A    between atoms: _616  and  _617
REMARK  247  A    between atoms: _616  and  _619
REMARK  248  A    between atoms: _619  and  _620
REMARK  249  A    between atoms: _622  and  _624
REMARK  250  A    between atoms: _624  and  _625
REMARK  251  A    between atoms: _624  and  _627
REMARK  252  A    between atoms: _627  and  _628
REMARK  253  A    between atoms: _634  and  _636
REMARK  254  A    between atoms: _636  and  _637
REMARK  255  A    between atoms: _636  and  _639
REMARK  256  A    between atoms: _639  and  _640
REMARK  257  A    between atoms: _645  and  _646
REMARK  258  A    between atoms: _648  and  _650
REMARK  259  A    between atoms: _650  and  _651
REMARK  260  A    between atoms: _650  and  _653
REMARK  261  A    between atoms: _653  and  _654
REMARK                            x       y       z     vdW  Elec       q    Type
REMARK                         _______ _______ _______ _____ _____    ______ ____
ROOT
ATOM      1  O   HOH     1      37.960   3.442 -42.983  0.00  0.00    +0.000 OA
ENDROOT
TORSDOF 0
REMARK  Name = ../refined-set-2016/4idn/4idn_pocket.pdb
REMARK  261 active torsions:
REMARK  status: ('A' for Active; 'I' for Inactive)
REMARK    1  A    between atoms: _1  and  _3
REMARK    2  A    between atoms: _3  and  _4
REMARK    3  A    between atoms: _3  and  _6
REMARK    4  A    between atoms: _9  and  _11
REMARK    5  A    between atoms: _11  and  _12
REMARK    6  A    between atoms: _15  and  _17
REMARK    7  A    between atoms: _17  and  _18
REMARK    8  A    between atoms: _20  and  _22
REMARK    9  A    between atoms: _22  and  _23
REMARK   10  A    between atoms: _26  and  _28
REMARK   11  A    between atoms: _28  and  _29
REMARK   12  A    between atoms: _28  and  _31
REMARK   13  A    between atoms: _31  and  _32
REMARK   14  A    between atoms: _38  and  _40
REMARK   15  A    between atoms: _40  and  _41
REMARK   16  A    between atoms: _40  and  _43
REMARK   17  A    between atoms: _43  and  _44
REMARK   18  A    between atoms: _44  and  _45
REMARK   19  A    between atoms: _45  and  _46
REMARK   20  A    between atoms: _55  and  _57
REMARK   21  A    between atoms: _57  and  _58
REMARK   22  A    between atoms: _57  and  _60
REMARK   23  A    between atoms: _60  and  _61
REMARK   24  A    between atoms: _61  and  _62
REMARK   25  A    between atoms: _62  and  _63
REMARK   26  A    between atoms: _63  and  _64
REMARK   27  A    between atoms: _68  and  _70
REMARK   28  A    between atoms: _70  and  _71
REMARK   29  A    between atoms: _73  and  _75
REMARK   30  A    between atoms: _75  and  _76
REMARK   31  A    between atoms: _75  and  _78
REMARK   32  A    between atoms: _78  and  _79
REMARK   33  A    between atoms: _79  and  _80
REMARK   34  A    between atoms: _80  and  _81
REMARK   35  A    between atoms: _81  and  _82
REMARK   36  A    between atoms: _86  and  _88
REMARK   37  A    between atoms: _88  and  _89
REMARK   38  A    between atoms: _88  and  _91
REMARK   39  A    between atoms: _91  and  _92
REMARK   40  A    between atoms: _94  and  _96
REMARK   41  A    between atoms: _96  and  _97
REMARK   42  A    between atoms: _96  and  _99
REMARK   43  A    between atoms: _99  and  _100
REMARK   44  A    between atoms: _106  and  _108
REMARK   45  A    between atoms: _108  and  _109
REMARK   46  A    between atoms: _108  and  _111
REMARK   47  A    between atoms: _111  and  _112
REMARK   48  A    between atoms: _115  and  _117
REMARK   49  A    between atoms: _117  and  _118
REMARK   50  A    between atoms: _117  and  _120
REMARK   51  A    between atoms: _120  and  _121
REMARK   52  A    between atoms: _121  and  _122
REMARK   53  A    between atoms: _124  and  _126
REMARK   54  A    between atoms: _126  and  _127
REMARK   55  A    between atoms: _126  and  _129
REMARK   56  A    between atoms: _129  and  _130
REMARK   57  A    between atoms: _133  and  _135
REMARK   58  A    between atoms: _135  and  _136
REMARK   59  A    between atoms: _135  and  _138
REMARK   60  A    between atoms: _138  and  _139
REMARK   61  A    between atoms: _145  and  _147
REMARK   62  A    between atoms: _147  and  _148
REMARK   63  A    between atoms: _147  and  _150
REMARK   64  A    between atoms: _150  and  _151
REMARK   65  A    between atoms: _154  and  _156
REMARK   66  A    between atoms: _156  and  _157
REMARK   67  A    between atoms: _156  and  _159
REMARK   68  A    between atoms: _159  and  _160
REMARK   69  A    between atoms: _166  and  _168
REMARK   70  A    between atoms: _168  and  _169
REMARK   71  A    between atoms: _168  and  _171
REMARK   72  A    between atoms: _171  and  _172
REMARK   73  A    between atoms: _174  and  _176
REMARK   74  A    between atoms: _176  and  _177
REMARK   75  A    between atoms: _176  and  _179
REMARK   76  A    between atoms: _179  and  _180
REMARK   77  A    between atoms: _190  and  _192
REMARK   78  A    between atoms: _192  and  _193
REMARK   79  A    between atoms: _192  and  _195
REMARK   80  A    between atoms: _195  and  _196
REMARK   81  A    between atoms: _196  and  _197
REMARK   82  A    between atoms: _197  and  _198
REMARK   83  A    between atoms: _207  and  _209
REMARK   84  A    between atoms: _209  and  _210
REMARK   85  A    between atoms: _212  and  _214
REMARK   86  A    between atoms: _214  and  _215
REMARK   87  A    between atoms: _217  and  _219
REMARK   88  A    between atoms: _219  and  _220
REMARK   89  A    between atoms: _219  and  _222
REMARK   90  A    between atoms: _222  and  _223
REMARK   91  A    between atoms: _225  and  _227
REMARK   92  A    between atoms: _227  and  _228
REMARK   93  A    between atoms: _227  and  _230
REMARK   94  A    between atoms: _230  and  _231
REMARK   95  A    between atoms: _231  and  _232
REMARK   96  A    between atoms: _235  and  _237
REMARK   97  A    between atoms: _237  and  _238
REMARK   98  A    between atoms: _237  and  _240
REMARK   99  A    between atoms: _240  and  _241
REMARK  100  A    between atoms: _241  and  _242
REMARK  101  A    between atoms: _242  and  _243
REMARK  102  A    between atoms: _252  and  _254
REMARK  103  A    between atoms: _254  and  _255
REMARK  104  A    between atoms: _254  and  _257
REMARK  105  A    between atoms: _257  and  _258
REMARK  106  A    between atoms: _258  and  _259
REMARK  107  A    between atoms: _262  and  _264
REMARK  108  A    between atoms: _264  and  _265
REMARK  109  A    between atoms: _264  and  _267
REMARK  110  A    between atoms: _267  and  _268
REMARK  111  A    between atoms: _271  and  _273
REMARK  112  A    between atoms: _273  and  _274
REMARK  113  A    between atoms: _273  and  _276
REMARK  114  A    between atoms: _276  and  _277
REMARK  115  A    between atoms: _280  and  _282
REMARK  116  A    between atoms: _282  and  _283
REMARK  117  A    between atoms: _282  and  _285
REMARK  118  A    between atoms: _285  and  _286
REMARK  119  A    between atoms: _286  and  _287
REMARK  120  A    between atoms: _292  and  _294
REMARK  121  A    between atoms: _294  and  _295
REMARK  122  A    between atoms: _294  and  _297
REMARK  123  A    between atoms: _297  and  _298
REMARK  124  A    between atoms: _301  and  _303
REMARK  125  A    between atoms: _303  and  _304
REMARK  126  A    between atoms: _303  and  _306
REMARK  127  A    between atoms: _306  and  _307
REMARK  128  A    between atoms: _310  and  _312
REMARK  129  A    between atoms: _312  and  _313
REMARK  130  A    between atoms: _312  and  _315
REMARK  131  A    between atoms: _315  and  _316
REMARK  132  A    between atoms: _316  and  _317
REMARK  133  A    between atoms: _322  and  _324
REMARK  134  A    between atoms: _324  and  _325
REMARK  135  A    between atoms: _327  and  _329
REMARK  136  A    between atoms: _329  and  _330
REMARK  137  A    between atoms: _329  and  _332
REMARK  138  A    between atoms: _332  and  _333
REMARK  139  A    between atoms: _336  and  _338
REMARK  140  A    between atoms: _338  and  _339
REMARK  141  A    between atoms: _338  and  _341
REMARK  142  A    between atoms: _341  and  _342
REMARK  143  A    between atoms: _345  and  _347
REMARK  144  A    between atoms: _347  and  _348
REMARK  145  A    between atoms: _347  and  _350
REMARK  146  A    between atoms: _350  and  _351
REMARK  147  A    between atoms: _356  and  _358
REMARK  148  A    between atoms: _358  and  _359
REMARK  149  A    between atoms: _358  and  _361
REMARK  150  A    between atoms: _361  and  _362
REMARK  151  A    between atoms: _365  and  _367
REMARK  152  A    between atoms: _367  and  _368
REMARK  153  A    between atoms: _367  and  _370
REMARK  154  A    between atoms: _370  and  _371
REMARK  155  A    between atoms: _373  and  _375
REMARK  156  A    between atoms: _375  and  _376
REMARK  157  A    between atoms: _375  and  _378
REMARK  158  A    between atoms: _378  and  _379
REMARK  159  A    between atoms: _379  and  _380
REMARK  160  A    between atoms: _385  and  _387
REMARK  161  A    between atoms: _387  and  _388
REMARK  162  A    between atoms: _387  and  _390
REMARK  163  A    between atoms: _390  and  _391
REMARK  164  A    between atoms: _394  and  _396
REMARK  165  A    between atoms: _396  and  _397
REMARK  166  A    between atoms: _396  and  _399
REMARK  167  A    between atoms: _402  and  _404
REMARK  168  A    between atoms: _404  and  _405
REMARK  169  A    between atoms: _404  and  _407
REMARK  170  A    between atoms: _407  and  _408
REMARK  171  A    between atoms: _408  and  _409
REMARK  172  A    between atoms: _409  and  _410
REMARK  173  A    between atoms: _419  and  _421
REMARK  174  A    between atoms: _421  and  _422
REMARK  175  A    between atoms: _421  and  _424
REMARK  176  A    between atoms: _424  and  _425
REMARK  177  A    between atoms: _428  and  _430
REMARK  178  A    between atoms: _430  and  _431
REMARK  179  A    between atoms: _430  and  _433
REMARK  180  A    between atoms: _433  and  _434
REMARK  181  A    between atoms: _444  and  _446
REMARK  182  A    between atoms: _446  and  _447
REMARK  183  A    between atoms: _446  and  _449
REMARK  184  A    between atoms: _449  and  _450
REMARK  185  A    between atoms: _454  and  _455
REMARK  186  A    between atoms: _460  and  _462
REMARK  187  A    between atoms: _462  and  _463
REMARK  188  A    between atoms: _462  and  _465
REMARK  189  A    between atoms: _465  and  _466
REMARK  190  A    between atoms: _472  and  _473
REMARK  191  A    between atoms: _478  and  _480
REMARK  192  A    between atoms: _480  and  _481
REMARK  193  A    between atoms: _483  and  _485
REMARK  194  A    between atoms: _485  and  _486
REMARK  195  A    between atoms: _485  and  _488
REMARK  196  A    between atoms: _488  and  _489
REMARK  197  A    between atoms: _492  and  _494
REMARK  198  A    between atoms: _494  and  _495
REMARK  199  A    between atoms: _494  and  _497
REMARK  200  A    between atoms: _497  and  _498
REMARK  201  A    between atoms: _498  and  _499
REMARK  202  A    between atoms: _499  and  _500
REMARK  203  A    between atoms: _500  and  _501
REMARK  204  A    between atoms: _505  and  _507
REMARK  205  A    between atoms: _507  and  _508
REMARK  206  A    between atoms: _507  and  _510
REMARK  207  A    between atoms: _513  and  _515
REMARK  208  A    between atoms: _515  and  _516
REMARK  209  A    between atoms: _519  and  _521
REMARK  210  A    between atoms: _521  and  _522
REMARK  211  A    between atoms: _521  and  _524
REMARK  212  A    between atoms: _524  and  _525
REMARK  213  A    between atoms: _528  and  _530
REMARK  214  A    between atoms: _530  and  _531
REMARK  215  A    between atoms: _530  and  _533
REMARK  216  A    between atoms: _533  and  _534
REMARK  217  A    between atoms: _540  and  _541
REMARK  218  A    between atoms: _546  and  _548
REMARK  219  A    between atoms: _548  and  _549
REMARK  220  A    between atoms: _548  and  _551
REMARK  221  A    between atoms: _551  and  _552
REMARK  222  A    between atoms: _558  and  _560
REMARK  223  A    between atoms: _560  and  _561
REMARK  224  A    between atoms: _560  and  _563
REMARK  225  A    between atoms: _563  and  _564
REMARK  226  A    between atoms: _567  and  _569
REMARK  227  A    between atoms: _569  and  _570
REMARK  228  A    between atoms: _572  and  _574
REMARK  229  A    between atoms: _574  and  _575
REMARK  230  A    between atoms: _574  and  _577
REMARK  231  A    between atoms: _577  and  _578
REMARK  232  A    between atoms: _581  and  _583
REMARK  233  A    between atoms: _583  and  _584
REMARK  234  A    between atoms: _583  and  _586
REMARK  235  A    between atoms: _586  and  _587
REMARK  236  A    between atoms: _593  and  _595
REMARK  237  A    between atoms: _595  and  _596
REMARK  238  A    between atoms: _595  and  _598
REMARK  239  A    between atoms: _598  and  _599
REMARK  240  A    between atoms: _599  and  _600
REMARK  241  A    between atoms: _605  and  _607
REMARK  242  A    between atoms: _607  and  _608
REMARK  243  A    between atoms: _607  and  _610
REMARK  244  A    between atoms: _610  and  _611
REMARK  245  A    between atoms: _614  and  _616
REMARK  246  A    between atoms: _616  and  _617
REMARK  247  A    between atoms: _616  and  _619
REMARK  248  A    between atoms: _619  and  _620
REMARK  249  A    between atoms: _622  and  _624
REMARK  250  A    between atoms: _624  and  _625
REMARK  251  A    between atoms: _624  and  _627
REMARK  252  A    between atoms: _627  and  _628
REMARK  253  A    between atoms: _634  and  _636
REMARK  254  A    between atoms: _636  and  _637
REMARK  255  A    between atoms: _636  and  _639
REMARK  256  A    between atoms: _639  and  _640
REMARK  257  A    between atoms: _645  and  _646
REMARK  258  A    between atoms: _648  and  _650
REMARK  259  A    between atoms: _650  and  _651
REMARK  260  A    between atoms: _650  and  _653
REMARK  261  A    between atoms: _653  and  _654
REMARK                            x       y       z     vdW  Elec       q    Type
REMARK                         _______ _______ _______ _____ _____    ______ ____
ROOT
ATOM      1  O   HOH     1      31.045   4.650 -45.504  0.00  0.00    +0.000 OA
ENDROOT
TORSDOF 0
REMARK  Name = ../refined-set-2016/4idn/4idn_pocket.pdb
REMARK  261 active torsions:
REMARK  status: ('A' for Active; 'I' for Inactive)
REMARK    1  A    between atoms: _1  and  _3
REMARK    2  A    between atoms: _3  and  _4
REMARK    3  A    between atoms: _3  and  _6
REMARK    4  A    between atoms: _9  and  _11
REMARK    5  A    between atoms: _11  and  _12
REMARK    6  A    between atoms: _15  and  _17
REMARK    7  A    between atoms: _17  and  _18
REMARK    8  A    between atoms: _20  and  _22
REMARK    9  A    between atoms: _22  and  _23
REMARK   10  A    between atoms: _26  and  _28
REMARK   11  A    between atoms: _28  and  _29
REMARK   12  A    between atoms: _28  and  _31
REMARK   13  A    between atoms: _31  and  _32
REMARK   14  A    between atoms: _38  and  _40
REMARK   15  A    between atoms: _40  and  _41
REMARK   16  A    between atoms: _40  and  _43
REMARK   17  A    between atoms: _43  and  _44
REMARK   18  A    between atoms: _44  and  _45
REMARK   19  A    between atoms: _45  and  _46
REMARK   20  A    between atoms: _55  and  _57
REMARK   21  A    between atoms: _57  and  _58
REMARK   22  A    between atoms: _57  and  _60
REMARK   23  A    between atoms: _60  and  _61
REMARK   24  A    between atoms: _61  and  _62
REMARK   25  A    between atoms: _62  and  _63
REMARK   26  A    between atoms: _63  and  _64
REMARK   27  A    between atoms: _68  and  _70
REMARK   28  A    between atoms: _70  and  _71
REMARK   29  A    between atoms: _73  and  _75
REMARK   30  A    between atoms: _75  and  _76
REMARK   31  A    between atoms: _75  and  _78
REMARK   32  A    between atoms: _78  and  _79
REMARK   33  A    between atoms: _79  and  _80
REMARK   34  A    between atoms: _80  and  _81
REMARK   35  A    between atoms: _81  and  _82
REMARK   36  A    between atoms: _86  and  _88
REMARK   37  A    between atoms: _88  and  _89
REMARK   38  A    between atoms: _88  and  _91
REMARK   39  A    between atoms: _91  and  _92
REMARK   40  A    between atoms: _94  and  _96
REMARK   41  A    between atoms: _96  and  _97
REMARK   42  A    between atoms: _96  and  _99
REMARK   43  A    between atoms: _99  and  _100
REMARK   44  A    between atoms: _106  and  _108
REMARK   45  A    between atoms: _108  and  _109
REMARK   46  A    between atoms: _108  and  _111
REMARK   47  A    between atoms: _111  and  _112
REMARK   48  A    between atoms: _115  and  _117
REMARK   49  A    between atoms: _117  and  _118
REMARK   50  A    between atoms: _117  and  _120
REMARK   51  A    between atoms: _120  and  _121
REMARK   52  A    between atoms: _121  and  _122
REMARK   53  A    between atoms: _124  and  _126
REMARK   54  A    between atoms: _126  and  _127
REMARK   55  A    between atoms: _126  and  _129
REMARK   56  A    between atoms: _129  and  _130
REMARK   57  A    between atoms: _133  and  _135
REMARK   58  A    between atoms: _135  and  _136
REMARK   59  A    between atoms: _135  and  _138
REMARK   60  A    between atoms: _138  and  _139
REMARK   61  A    between atoms: _145  and  _147
REMARK   62  A    between atoms: _147  and  _148
REMARK   63  A    between atoms: _147  and  _150
REMARK   64  A    between atoms: _150  and  _151
REMARK   65  A    between atoms: _154  and  _156
REMARK   66  A    between atoms: _156  and  _157
REMARK   67  A    between atoms: _156  and  _159
REMARK   68  A    between atoms: _159  and  _160
REMARK   69  A    between atoms: _166  and  _168
REMARK   70  A    between atoms: _168  and  _169
REMARK   71  A    between atoms: _168  and  _171
REMARK   72  A    between atoms: _171  and  _172
REMARK   73  A    between atoms: _174  and  _176
REMARK   74  A    between atoms: _176  and  _177
REMARK   75  A    between atoms: _176  and  _179
REMARK   76  A    between atoms: _179  and  _180
REMARK   77  A    between atoms: _190  and  _192
REMARK   78  A    between atoms: _192  and  _193
REMARK   79  A    between atoms: _192  and  _195
REMARK   80  A    between atoms: _195  and  _196
REMARK   81  A    between atoms: _196  and  _197
REMARK   82  A    between atoms: _197  and  _198
REMARK   83  A    between atoms: _207  and  _209
REMARK   84  A    between atoms: _209  and  _210
REMARK   85  A    between atoms: _212  and  _214
REMARK   86  A    between atoms: _214  and  _215
REMARK   87  A    between atoms: _217  and  _219
REMARK   88  A    between atoms: _219  and  _220
REMARK   89  A    between atoms: _219  and  _222
REMARK   90  A    between atoms: _222  and  _223
REMARK   91  A    between atoms: _225  and  _227
REMARK   92  A    between atoms: _227  and  _228
REMARK   93  A    between atoms: _227  and  _230
REMARK   94  A    between atoms: _230  and  _231
REMARK   95  A    between atoms: _231  and  _232
REMARK   96  A    between atoms: _235  and  _237
REMARK   97  A    between atoms: _237  and  _238
REMARK   98  A    between atoms: _237  and  _240
REMARK   99  A    between atoms: _240  and  _241
REMARK  100  A    between atoms: _241  and  _242
REMARK  101  A    between atoms: _242  and  _243
REMARK  102  A    between atoms: _252  and  _254
REMARK  103  A    between atoms: _254  and  _255
REMARK  104  A    between atoms: _254  and  _257
REMARK  105  A    between atoms: _257  and  _258
REMARK  106  A    between atoms: _258  and  _259
REMARK  107  A    between atoms: _262  and  _264
REMARK  108  A    between atoms: _264  and  _265
REMARK  109  A    between atoms: _264  and  _267
REMARK  110  A    between atoms: _267  and  _268
REMARK  111  A    between atoms: _271  and  _273
REMARK  112  A    between atoms: _273  and  _274
REMARK  113  A    between atoms: _273  and  _276
REMARK  114  A    between atoms: _276  and  _277
REMARK  115  A    between atoms: _280  and  _282
REMARK  116  A    between atoms: _282  and  _283
REMARK  117  A    between atoms: _282  and  _285
REMARK  118  A    between atoms: _285  and  _286
REMARK  119  A    between atoms: _286  and  _287
REMARK  120  A    between atoms: _292  and  _294
REMARK  121  A    between atoms: _294  and  _295
REMARK  122  A    between atoms: _294  and  _297
REMARK  123  A    between atoms: _297  and  _298
REMARK  124  A    between atoms: _301  and  _303
REMARK  125  A    between atoms: _303  and  _304
REMARK  126  A    between atoms: _303  and  _306
REMARK  127  A    between atoms: _306  and  _307
REMARK  128  A    between atoms: _310  and  _312
REMARK  129  A    between atoms: _312  and  _313
REMARK  130  A    between atoms: _312  and  _315
REMARK  131  A    between atoms: _315  and  _316
REMARK  132  A    between atoms: _316  and  _317
REMARK  133  A    between atoms: _322  and  _324
REMARK  134  A    between atoms: _324  and  _325
REMARK  135  A    between atoms: _327  and  _329
REMARK  136  A    between atoms: _329  and  _330
REMARK  137  A    between atoms: _329  and  _332
REMARK  138  A    between atoms: _332  and  _333
REMARK  139  A    between atoms: _336  and  _338
REMARK  140  A    between atoms: _338  and  _339
REMARK  141  A    between atoms: _338  and  _341
REMARK  142  A    between atoms: _341  and  _342
REMARK  143  A    between atoms: _345  and  _347
REMARK  144  A    between atoms: _347  and  _348
REMARK  145  A    between atoms: _347  and  _350
REMARK  146  A    between atoms: _350  and  _351
REMARK  147  A    between atoms: _356  and  _358
REMARK  148  A    between atoms: _358  and  _359
REMARK  149  A    between atoms: _358  and  _361
REMARK  150  A    between atoms: _361  and  _362
REMARK  151  A    between atoms: _365  and  _367
REMARK  152  A    between atoms: _367  and  _368
REMARK  153  A    between atoms: _367  and  _370
REMARK  154  A    between atoms: _370  and  _371
REMARK  155  A    between atoms: _373  and  _375
REMARK  156  A    between atoms: _375  and  _376
REMARK  157  A    between atoms: _375  and  _378
REMARK  158  A    between atoms: _378  and  _379
REMARK  159  A    between atoms: _379  and  _380
REMARK  160  A    between atoms: _385  and  _387
REMARK  161  A    between atoms: _387  and  _388
REMARK  162  A    between atoms: _387  and  _390
REMARK  163  A    between atoms: _390  and  _391
REMARK  164  A    between atoms: _394  and  _396
REMARK  165  A    between atoms: _396  and  _397
REMARK  166  A    between atoms: _396  and  _399
REMARK  167  A    between atoms: _402  and  _404
REMARK  168  A    between atoms: _404  and  _405
REMARK  169  A    between atoms: _404  and  _407
REMARK  170  A    between atoms: _407  and  _408
REMARK  171  A    between atoms: _408  and  _409
REMARK  172  A    between atoms: _409  and  _410
REMARK  173  A    between atoms: _419  and  _421
REMARK  174  A    between atoms: _421  and  _422
REMARK  175  A    between atoms: _421  and  _424
REMARK  176  A    between atoms: _424  and  _425
REMARK  177  A    between atoms: _428  and  _430
REMARK  178  A    between atoms: _430  and  _431
REMARK  179  A    between atoms: _430  and  _433
REMARK  180  A    between atoms: _433  and  _434
REMARK  181  A    between atoms: _444  and  _446
REMARK  182  A    between atoms: _446  and  _447
REMARK  183  A    between atoms: _446  and  _449
REMARK  184  A    between atoms: _449  and  _450
REMARK  185  A    between atoms: _454  and  _455
REMARK  186  A    between atoms: _460  and  _462
REMARK  187  A    between atoms: _462  and  _463
REMARK  188  A    between atoms: _462  and  _465
REMARK  189  A    between atoms: _465  and  _466
REMARK  190  A    between atoms: _472  and  _473
REMARK  191  A    between atoms: _478  and  _480
REMARK  192  A    between atoms: _480  and  _481
REMARK  193  A    between atoms: _483  and  _485
REMARK  194  A    between atoms: _485  and  _486
REMARK  195  A    between atoms: _485  and  _488
REMARK  196  A    between atoms: _488  and  _489
REMARK  197  A    between atoms: _492  and  _494
REMARK  198  A    between atoms: _494  and  _495
REMARK  199  A    between atoms: _494  and  _497
REMARK  200  A    between atoms: _497  and  _498
REMARK  201  A    between atoms: _498  and  _499
REMARK  202  A    between atoms: _499  and  _500
REMARK  203  A    between atoms: _500  and  _501
REMARK  204  A    between atoms: _505  and  _507
REMARK  205  A    between atoms: _507  and  _508
REMARK  206  A    between atoms: _507  and  _510
REMARK  207  A    between atoms: _513  and  _515
REMARK  208  A    between atoms: _515  and  _516
REMARK  209  A    between atoms: _519  and  _521
REMARK  210  A    between atoms: _521  and  _522
REMARK  211  A    between atoms: _521  and  _524
REMARK  212  A    between atoms: _524  and  _525
REMARK  213  A    between atoms: _528  and  _530
REMARK  214  A    between atoms: _530  and  _531
REMARK  215  A    between atoms: _530  and  _533
REMARK  216  A    between atoms: _533  and  _534
REMARK  217  A    between atoms: _540  and  _541
REMARK  218  A    between atoms: _546  and  _548
REMARK  219  A    between atoms: _548  and  _549
REMARK  220  A    between atoms: _548  and  _551
REMARK  221  A    between atoms: _551  and  _552
REMARK  222  A    between atoms: _558  and  _560
REMARK  223  A    between atoms: _560  and  _561
REMARK  224  A    between atoms: _560  and  _563
REMARK  225  A    between atoms: _563  and  _564
REMARK  226  A    between atoms: _567  and  _569
REMARK  227  A    between atoms: _569  and  _570
REMARK  228  A    between atoms: _572  and  _574
REMARK  229  A    between atoms: _574  and  _575
REMARK  230  A    between atoms: _574  and  _577
REMARK  231  A    between atoms: _577  and  _578
REMARK  232  A    between atoms: _581  and  _583
REMARK  233  A    between atoms: _583  and  _584
REMARK  234  A    between atoms: _583  and  _586
REMARK  235  A    between atoms: _586  and  _587
REMARK  236  A    between atoms: _593  and  _595
REMARK  237  A    between atoms: _595  and  _596
REMARK  238  A    between atoms: _595  and  _598
REMARK  239  A    between atoms: _598  and  _599
REMARK  240  A    between atoms: _599  and  _600
REMARK  241  A    between atoms: _605  and  _607
REMARK  242  A    between atoms: _607  and  _608
REMARK  243  A    between atoms: _607  and  _610
REMARK  244  A    between atoms: _610  and  _611
REMARK  245  A    between atoms: _614  and  _616
REMARK  246  A    between atoms: _616  and  _617
REMARK  247  A    between atoms: _616  and  _619
REMARK  248  A    between atoms: _619  and  _620
REMARK  249  A    between atoms: _622  and  _624
REMARK  250  A    between atoms: _624  and  _625
REMARK  251  A    between atoms: _624  and  _627
REMARK  252  A    between atoms: _627  and  _628
REMARK  253  A    between atoms: _634  and  _636
REMARK  254  A    between atoms: _636  and  _637
REMARK  255  A    between atoms: _636  and  _639
REMARK  256  A    between atoms: _639  and  _640
REMARK  257  A    between atoms: _645  and  _646
REMARK  258  A    between atoms: _648  and  _650
REMARK  259  A    between atoms: _650  and  _651
REMARK  260  A    between atoms: _650  and  _653
REMARK  261  A    between atoms: _653  and  _654
REMARK                            x       y       z     vdW  Elec       q    Type
REMARK                         _______ _______ _______ _____ _____    ______ ____
ROOT
ATOM      1  O   HOH     1      27.885   3.910 -44.323  0.00  0.00    +0.000 OA
ENDROOT
TORSDOF 0
REMARK  Name = ../refined-set-2016/4idn/4idn_pocket.pdb
REMARK  261 active torsions:
REMARK  status: ('A' for Active; 'I' for Inactive)
REMARK    1  A    between atoms: _1  and  _3
REMARK    2  A    between atoms: _3  and  _4
REMARK    3  A    between atoms: _3  and  _6
REMARK    4  A    between atoms: _9  and  _11
REMARK    5  A    between atoms: _11  and  _12
REMARK    6  A    between atoms: _15  and  _17
REMARK    7  A    between atoms: _17  and  _18
REMARK    8  A    between atoms: _20  and  _22
REMARK    9  A    between atoms: _22  and  _23
REMARK   10  A    between atoms: _26  and  _28
REMARK   11  A    between atoms: _28  and  _29
REMARK   12  A    between atoms: _28  and  _31
REMARK   13  A    between atoms: _31  and  _32
REMARK   14  A    between atoms: _38  and  _40
REMARK   15  A    between atoms: _40  and  _41
REMARK   16  A    between atoms: _40  and  _43
REMARK   17  A    between atoms: _43  and  _44
REMARK   18  A    between atoms: _44  and  _45
REMARK   19  A    between atoms: _45  and  _46
REMARK   20  A    between atoms: _55  and  _57
REMARK   21  A    between atoms: _57  and  _58
REMARK   22  A    between atoms: _57  and  _60
REMARK   23  A    between atoms: _60  and  _61
REMARK   24  A    between atoms: _61  and  _62
REMARK   25  A    between atoms: _62  and  _63
REMARK   26  A    between atoms: _63  and  _64
REMARK   27  A    between atoms: _68  and  _70
REMARK   28  A    between atoms: _70  and  _71
REMARK   29  A    between atoms: _73  and  _75
REMARK   30  A    between atoms: _75  and  _76
REMARK   31  A    between atoms: _75  and  _78
REMARK   32  A    between atoms: _78  and  _79
REMARK   33  A    between atoms: _79  and  _80
REMARK   34  A    between atoms: _80  and  _81
REMARK   35  A    between atoms: _81  and  _82
REMARK   36  A    between atoms: _86  and  _88
REMARK   37  A    between atoms: _88  and  _89
REMARK   38  A    between atoms: _88  and  _91
REMARK   39  A    between atoms: _91  and  _92
REMARK   40  A    between atoms: _94  and  _96
REMARK   41  A    between atoms: _96  and  _97
REMARK   42  A    between atoms: _96  and  _99
REMARK   43  A    between atoms: _99  and  _100
REMARK   44  A    between atoms: _106  and  _108
REMARK   45  A    between atoms: _108  and  _109
REMARK   46  A    between atoms: _108  and  _111
REMARK   47  A    between atoms: _111  and  _112
REMARK   48  A    between atoms: _115  and  _117
REMARK   49  A    between atoms: _117  and  _118
REMARK   50  A    between atoms: _117  and  _120
REMARK   51  A    between atoms: _120  and  _121
REMARK   52  A    between atoms: _121  and  _122
REMARK   53  A    between atoms: _124  and  _126
REMARK   54  A    between atoms: _126  and  _127
REMARK   55  A    between atoms: _126  and  _129
REMARK   56  A    between atoms: _129  and  _130
REMARK   57  A    between atoms: _133  and  _135
REMARK   58  A    between atoms: _135  and  _136
REMARK   59  A    between atoms: _135  and  _138
REMARK   60  A    between atoms: _138  and  _139
REMARK   61  A    between atoms: _145  and  _147
REMARK   62  A    between atoms: _147  and  _148
REMARK   63  A    between atoms: _147  and  _150
REMARK   64  A    between atoms: _150  and  _151
REMARK   65  A    between atoms: _154  and  _156
REMARK   66  A    between atoms: _156  and  _157
REMARK   67  A    between atoms: _156  and  _159
REMARK   68  A    between atoms: _159  and  _160
REMARK   69  A    between atoms: _166  and  _168
REMARK   70  A    between atoms: _168  and  _169
REMARK   71  A    between atoms: _168  and  _171
REMARK   72  A    between atoms: _171  and  _172
REMARK   73  A    between atoms: _174  and  _176
REMARK   74  A    between atoms: _176  and  _177
REMARK   75  A    between atoms: _176  and  _179
REMARK   76  A    between atoms: _179  and  _180
REMARK   77  A    between atoms: _190  and  _192
REMARK   78  A    between atoms: _192  and  _193
REMARK   79  A    between atoms: _192  and  _195
REMARK   80  A    between atoms: _195  and  _196
REMARK   81  A    between atoms: _196  and  _197
REMARK   82  A    between atoms: _197  and  _198
REMARK   83  A    between atoms: _207  and  _209
REMARK   84  A    between atoms: _209  and  _210
REMARK   85  A    between atoms: _212  and  _214
REMARK   86  A    between atoms: _214  and  _215
REMARK   87  A    between atoms: _217  and  _219
REMARK   88  A    between atoms: _219  and  _220
REMARK   89  A    between atoms: _219  and  _222
REMARK   90  A    between atoms: _222  and  _223
REMARK   91  A    between atoms: _225  and  _227
REMARK   92  A    between atoms: _227  and  _228
REMARK   93  A    between atoms: _227  and  _230
REMARK   94  A    between atoms: _230  and  _231
REMARK   95  A    between atoms: _231  and  _232
REMARK   96  A    between atoms: _235  and  _237
REMARK   97  A    between atoms: _237  and  _238
REMARK   98  A    between atoms: _237  and  _240
REMARK   99  A    between atoms: _240  and  _241
REMARK  100  A    between atoms: _241  and  _242
REMARK  101  A    between atoms: _242  and  _243
REMARK  102  A    between atoms: _252  and  _254
REMARK  103  A    between atoms: _254  and  _255
REMARK  104  A    between atoms: _254  and  _257
REMARK  105  A    between atoms: _257  and  _258
REMARK  106  A    between atoms: _258  and  _259
REMARK  107  A    between atoms: _262  and  _264
REMARK  108  A    between atoms: _264  and  _265
REMARK  109  A    between atoms: _264  and  _267
REMARK  110  A    between atoms: _267  and  _268
REMARK  111  A    between atoms: _271  and  _273
REMARK  112  A    between atoms: _273  and  _274
REMARK  113  A    between atoms: _273  and  _276
REMARK  114  A    between atoms: _276  and  _277
REMARK  115  A    between atoms: _280  and  _282
REMARK  116  A    between atoms: _282  and  _283
REMARK  117  A    between atoms: _282  and  _285
REMARK  118  A    between atoms: _285  and  _286
REMARK  119  A    between atoms: _286  and  _287
REMARK  120  A    between atoms: _292  and  _294
REMARK  121  A    between atoms: _294  and  _295
REMARK  122  A    between atoms: _294  and  _297
REMARK  123  A    between atoms: _297  and  _298
REMARK  124  A    between atoms: _301  and  _303
REMARK  125  A    between atoms: _303  and  _304
REMARK  126  A    between atoms: _303  and  _306
REMARK  127  A    between atoms: _306  and  _307
REMARK  128  A    between atoms: _310  and  _312
REMARK  129  A    between atoms: _312  and  _313
REMARK  130  A    between atoms: _312  and  _315
REMARK  131  A    between atoms: _315  and  _316
REMARK  132  A    between atoms: _316  and  _317
REMARK  133  A    between atoms: _322  and  _324
REMARK  134  A    between atoms: _324  and  _325
REMARK  135  A    between atoms: _327  and  _329
REMARK  136  A    between atoms: _329  and  _330
REMARK  137  A    between atoms: _329  and  _332
REMARK  138  A    between atoms: _332  and  _333
REMARK  139  A    between atoms: _336  and  _338
REMARK  140  A    between atoms: _338  and  _339
REMARK  141  A    between atoms: _338  and  _341
REMARK  142  A    between atoms: _341  and  _342
REMARK  143  A    between atoms: _345  and  _347
REMARK  144  A    between atoms: _347  and  _348
REMARK  145  A    between atoms: _347  and  _350
REMARK  146  A    between atoms: _350  and  _351
REMARK  147  A    between atoms: _356  and  _358
REMARK  148  A    between atoms: _358  and  _359
REMARK  149  A    between atoms: _358  and  _361
REMARK  150  A    between atoms: _361  and  _362
REMARK  151  A    between atoms: _365  and  _367
REMARK  152  A    between atoms: _367  and  _368
REMARK  153  A    between atoms: _367  and  _370
REMARK  154  A    between atoms: _370  and  _371
REMARK  155  A    between atoms: _373  and  _375
REMARK  156  A    between atoms: _375  and  _376
REMARK  157  A    between atoms: _375  and  _378
REMARK  158  A    between atoms: _378  and  _379
REMARK  159  A    between atoms: _379  and  _380
REMARK  160  A    between atoms: _385  and  _387
REMARK  161  A    between atoms: _387  and  _388
REMARK  162  A    between atoms: _387  and  _390
REMARK  163  A    between atoms: _390  and  _391
REMARK  164  A    between atoms: _394  and  _396
REMARK  165  A    between atoms: _396  and  _397
REMARK  166  A    between atoms: _396  and  _399
REMARK  167  A    between atoms: _402  and  _404
REMARK  168  A    between atoms: _404  and  _405
REMARK  169  A    between atoms: _404  and  _407
REMARK  170  A    between atoms: _407  and  _408
REMARK  171  A    between atoms: _408  and  _409
REMARK  172  A    between atoms: _409  and  _410
REMARK  173  A    between atoms: _419  and  _421
REMARK  174  A    between atoms: _421  and  _422
REMARK  175  A    between atoms: _421  and  _424
REMARK  176  A    between atoms: _424  and  _425
REMARK  177  A    between atoms: _428  and  _430
REMARK  178  A    between atoms: _430  and  _431
REMARK  179  A    between atoms: _430  and  _433
REMARK  180  A    between atoms: _433  and  _434
REMARK  181  A    between atoms: _444  and  _446
REMARK  182  A    between atoms: _446  and  _447
REMARK  183  A    between atoms: _446  and  _449
REMARK  184  A    between atoms: _449  and  _450
REMARK  185  A    between atoms: _454  and  _455
REMARK  186  A    between atoms: _460  and  _462
REMARK  187  A    between atoms: _462  and  _463
REMARK  188  A    between atoms: _462  and  _465
REMARK  189  A    between atoms: _465  and  _466
REMARK  190  A    between atoms: _472  and  _473
REMARK  191  A    between atoms: _478  and  _480
REMARK  192  A    between atoms: _480  and  _481
REMARK  193  A    between atoms: _483  and  _485
REMARK  194  A    between atoms: _485  and  _486
REMARK  195  A    between atoms: _485  and  _488
REMARK  196  A    between atoms: _488  and  _489
REMARK  197  A    between atoms: _492  and  _494
REMARK  198  A    between atoms: _494  and  _495
REMARK  199  A    between atoms: _494  and  _497
REMARK  200  A    between atoms: _497  and  _498
REMARK  201  A    between atoms: _498  and  _499
REMARK  202  A    between atoms: _499  and  _500
REMARK  203  A    between atoms: _500  and  _501
REMARK  204  A    between atoms: _505  and  _507
REMARK  205  A    between atoms: _507  and  _508
REMARK  206  A    between atoms: _507  and  _510
REMARK  207  A    between atoms: _513  and  _515
REMARK  208  A    between atoms: _515  and  _516
REMARK  209  A    between atoms: _519  and  _521
REMARK  210  A    between atoms: _521  and  _522
REMARK  211  A    between atoms: _521  and  _524
REMARK  212  A    between atoms: _524  and  _525
REMARK  213  A    between atoms: _528  and  _530
REMARK  214  A    between atoms: _530  and  _531
REMARK  215  A    between atoms: _530  and  _533
REMARK  216  A    between atoms: _533  and  _534
REMARK  217  A    between atoms: _540  and  _541
REMARK  218  A    between atoms: _546  and  _548
REMARK  219  A    between atoms: _548  and  _549
REMARK  220  A    between atoms: _548  and  _551
REMARK  221  A    between atoms: _551  and  _552
REMARK  222  A    between atoms: _558  and  _560
REMARK  223  A    between atoms: _560  and  _561
REMARK  224  A    between atoms: _560  and  _563
REMARK  225  A    between atoms: _563  and  _564
REMARK  226  A    between atoms: _567  and  _569
REMARK  227  A    between atoms: _569  and  _570
REMARK  228  A    between atoms: _572  and  _574
REMARK  229  A    between atoms: _574  and  _575
REMARK  230  A    between atoms: _574  and  _577
REMARK  231  A    between atoms: _577  and  _578
REMARK  232  A    between atoms: _581  and  _583
REMARK  233  A    between atoms: _583  and  _584
REMARK  234  A    between atoms: _583  and  _586
REMARK  235  A    between atoms: _586  and  _587
REMARK  236  A    between atoms: _593  and  _595
REMARK  237  A    between atoms: _595  and  _596
REMARK  238  A    between atoms: _595  and  _598
REMARK  239  A    between atoms: _598  and  _599
REMARK  240  A    between atoms: _599  and  _600
REMARK  241  A    between atoms: _605  and  _607
REMARK  242  A    between atoms: _607  and  _608
REMARK  243  A    between atoms: _607  and  _610
REMARK  244  A    between atoms: _610  and  _611
REMARK  245  A    between atoms: _614  and  _616
REMARK  246  A    between atoms: _616  and  _617
REMARK  247  A    between atoms: _616  and  _619
REMARK  248  A    between atoms: _619  and  _620
REMARK  249  A    between atoms: _622  and  _624
REMARK  250  A    between atoms: _624  and  _625
REMARK  251  A    between atoms: _624  and  _627
REMARK  252  A    between atoms: _627  and  _628
REMARK  253  A    between atoms: _634  and  _636
REMARK  254  A    between atoms: _636  and  _637
REMARK  255  A    between atoms: _636  and  _639
REMARK  256  A    between atoms: _639  and  _640
REMARK  257  A    between atoms: _645  and  _646
REMARK  258  A    between atoms: _648  and  _650
REMARK  259  A    between atoms: _650  and  _651
REMARK  260  A    between atoms: _650  and  _653
REMARK  261  A    between atoms: _653  and  _654
REMARK                            x       y       z     vdW  Elec       q    Type
REMARK                         _______ _______ _______ _____ _____    ______ ____
ROOT
ATOM      1  O   HOH     1      32.737   8.065 -44.363  0.00  0.00    +0.000 OA
ENDROOT
TORSDOF 0
REMARK  Name = ../refined-set-2016/4idn/4idn_pocket.pdb
REMARK  261 active torsions:
REMARK  status: ('A' for Active; 'I' for Inactive)
REMARK    1  A    between atoms: _1  and  _3
REMARK    2  A    between atoms: _3  and  _4
REMARK    3  A    between atoms: _3  and  _6
REMARK    4  A    between atoms: _9  and  _11
REMARK    5  A    between atoms: _11  and  _12
REMARK    6  A    between atoms: _15  and  _17
REMARK    7  A    between atoms: _17  and  _18
REMARK    8  A    between atoms: _20  and  _22
REMARK    9  A    between atoms: _22  and  _23
REMARK   10  A    between atoms: _26  and  _28
REMARK   11  A    between atoms: _28  and  _29
REMARK   12  A    between atoms: _28  and  _31
REMARK   13  A    between atoms: _31  and  _32
REMARK   14  A    between atoms: _38  and  _40
REMARK   15  A    between atoms: _40  and  _41
REMARK   16  A    between atoms: _40  and  _43
REMARK   17  A    between atoms: _43  and  _44
REMARK   18  A    between atoms: _44  and  _45
REMARK   19  A    between atoms: _45  and  _46
REMARK   20  A    between atoms: _55  and  _57
REMARK   21  A    between atoms: _57  and  _58
REMARK   22  A    between atoms: _57  and  _60
REMARK   23  A    between atoms: _60  and  _61
REMARK   24  A    between atoms: _61  and  _62
REMARK   25  A    between atoms: _62  and  _63
REMARK   26  A    between atoms: _63  and  _64
REMARK   27  A    between atoms: _68  and  _70
REMARK   28  A    between atoms: _70  and  _71
REMARK   29  A    between atoms: _73  and  _75
REMARK   30  A    between atoms: _75  and  _76
REMARK   31  A    between atoms: _75  and  _78
REMARK   32  A    between atoms: _78  and  _79
REMARK   33  A    between atoms: _79  and  _80
REMARK   34  A    between atoms: _80  and  _81
REMARK   35  A    between atoms: _81  and  _82
REMARK   36  A    between atoms: _86  and  _88
REMARK   37  A    between atoms: _88  and  _89
REMARK   38  A    between atoms: _88  and  _91
REMARK   39  A    between atoms: _91  and  _92
REMARK   40  A    between atoms: _94  and  _96
REMARK   41  A    between atoms: _96  and  _97
REMARK   42  A    between atoms: _96  and  _99
REMARK   43  A    between atoms: _99  and  _100
REMARK   44  A    between atoms: _106  and  _108
REMARK   45  A    between atoms: _108  and  _109
REMARK   46  A    between atoms: _108  and  _111
REMARK   47  A    between atoms: _111  and  _112
REMARK   48  A    between atoms: _115  and  _117
REMARK   49  A    between atoms: _117  and  _118
REMARK   50  A    between atoms: _117  and  _120
REMARK   51  A    between atoms: _120  and  _121
REMARK   52  A    between atoms: _121  and  _122
REMARK   53  A    between atoms: _124  and  _126
REMARK   54  A    between atoms: _126  and  _127
REMARK   55  A    between atoms: _126  and  _129
REMARK   56  A    between atoms: _129  and  _130
REMARK   57  A    between atoms: _133  and  _135
REMARK   58  A    between atoms: _135  and  _136
REMARK   59  A    between atoms: _135  and  _138
REMARK   60  A    between atoms: _138  and  _139
REMARK   61  A    between atoms: _145  and  _147
REMARK   62  A    between atoms: _147  and  _148
REMARK   63  A    between atoms: _147  and  _150
REMARK   64  A    between atoms: _150  and  _151
REMARK   65  A    between atoms: _154  and  _156
REMARK   66  A    between atoms: _156  and  _157
REMARK   67  A    between atoms: _156  and  _159
REMARK   68  A    between atoms: _159  and  _160
REMARK   69  A    between atoms: _166  and  _168
REMARK   70  A    between atoms: _168  and  _169
REMARK   71  A    between atoms: _168  and  _171
REMARK   72  A    between atoms: _171  and  _172
REMARK   73  A    between atoms: _174  and  _176
REMARK   74  A    between atoms: _176  and  _177
REMARK   75  A    between atoms: _176  and  _179
REMARK   76  A    between atoms: _179  and  _180
REMARK   77  A    between atoms: _190  and  _192
REMARK   78  A    between atoms: _192  and  _193
REMARK   79  A    between atoms: _192  and  _195
REMARK   80  A    between atoms: _195  and  _196
REMARK   81  A    between atoms: _196  and  _197
REMARK   82  A    between atoms: _197  and  _198
REMARK   83  A    between atoms: _207  and  _209
REMARK   84  A    between atoms: _209  and  _210
REMARK   85  A    between atoms: _212  and  _214
REMARK   86  A    between atoms: _214  and  _215
REMARK   87  A    between atoms: _217  and  _219
REMARK   88  A    between atoms: _219  and  _220
REMARK   89  A    between atoms: _219  and  _222
REMARK   90  A    between atoms: _222  and  _223
REMARK   91  A    between atoms: _225  and  _227
REMARK   92  A    between atoms: _227  and  _228
REMARK   93  A    between atoms: _227  and  _230
REMARK   94  A    between atoms: _230  and  _231
REMARK   95  A    between atoms: _231  and  _232
REMARK   96  A    between atoms: _235  and  _237
REMARK   97  A    between atoms: _237  and  _238
REMARK   98  A    between atoms: _237  and  _240
REMARK   99  A    between atoms: _240  and  _241
REMARK  100  A    between atoms: _241  and  _242
REMARK  101  A    between atoms: _242  and  _243
REMARK  102  A    between atoms: _252  and  _254
REMARK  103  A    between atoms: _254  and  _255
REMARK  104  A    between atoms: _254  and  _257
REMARK  105  A    between atoms: _257  and  _258
REMARK  106  A    between atoms: _258  and  _259
REMARK  107  A    between atoms: _262  and  _264
REMARK  108  A    between atoms: _264  and  _265
REMARK  109  A    between atoms: _264  and  _267
REMARK  110  A    between atoms: _267  and  _268
REMARK  111  A    between atoms: _271  and  _273
REMARK  112  A    between atoms: _273  and  _274
REMARK  113  A    between atoms: _273  and  _276
REMARK  114  A    between atoms: _276  and  _277
REMARK  115  A    between atoms: _280  and  _282
REMARK  116  A    between atoms: _282  and  _283
REMARK  117  A    between atoms: _282  and  _285
REMARK  118  A    between atoms: _285  and  _286
REMARK  119  A    between atoms: _286  and  _287
REMARK  120  A    between atoms: _292  and  _294
REMARK  121  A    between atoms: _294  and  _295
REMARK  122  A    between atoms: _294  and  _297
REMARK  123  A    between atoms: _297  and  _298
REMARK  124  A    between atoms: _301  and  _303
REMARK  125  A    between atoms: _303  and  _304
REMARK  126  A    between atoms: _303  and  _306
REMARK  127  A    between atoms: _306  and  _307
REMARK  128  A    between atoms: _310  and  _312
REMARK  129  A    between atoms: _312  and  _313
REMARK  130  A    between atoms: _312  and  _315
REMARK  131  A    between atoms: _315  and  _316
REMARK  132  A    between atoms: _316  and  _317
REMARK  133  A    between atoms: _322  and  _324
REMARK  134  A    between atoms: _324  and  _325
REMARK  135  A    between atoms: _327  and  _329
REMARK  136  A    between atoms: _329  and  _330
REMARK  137  A    between atoms: _329  and  _332
REMARK  138  A    between atoms: _332  and  _333
REMARK  139  A    between atoms: _336  and  _338
REMARK  140  A    between atoms: _338  and  _339
REMARK  141  A    between atoms: _338  and  _341
REMARK  142  A    between atoms: _341  and  _342
REMARK  143  A    between atoms: _345  and  _347
REMARK  144  A    between atoms: _347  and  _348
REMARK  145  A    between atoms: _347  and  _350
REMARK  146  A    between atoms: _350  and  _351
REMARK  147  A    between atoms: _356  and  _358
REMARK  148  A    between atoms: _358  and  _359
REMARK  149  A    between atoms: _358  and  _361
REMARK  150  A    between atoms: _361  and  _362
REMARK  151  A    between atoms: _365  and  _367
REMARK  152  A    between atoms: _367  and  _368
REMARK  153  A    between atoms: _367  and  _370
REMARK  154  A    between atoms: _370  and  _371
REMARK  155  A    between atoms: _373  and  _375
REMARK  156  A    between atoms: _375  and  _376
REMARK  157  A    between atoms: _375  and  _378
REMARK  158  A    between atoms: _378  and  _379
REMARK  159  A    between atoms: _379  and  _380
REMARK  160  A    between atoms: _385  and  _387
REMARK  161  A    between atoms: _387  and  _388
REMARK  162  A    between atoms: _387  and  _390
REMARK  163  A    between atoms: _390  and  _391
REMARK  164  A    between atoms: _394  and  _396
REMARK  165  A    between atoms: _396  and  _397
REMARK  166  A    between atoms: _396  and  _399
REMARK  167  A    between atoms: _402  and  _404
REMARK  168  A    between atoms: _404  and  _405
REMARK  169  A    between atoms: _404  and  _407
REMARK  170  A    between atoms: _407  and  _408
REMARK  171  A    between atoms: _408  and  _409
REMARK  172  A    between atoms: _409  and  _410
REMARK  173  A    between atoms: _419  and  _421
REMARK  174  A    between atoms: _421  and  _422
REMARK  175  A    between atoms: _421  and  _424
REMARK  176  A    between atoms: _424  and  _425
REMARK  177  A    between atoms: _428  and  _430
REMARK  178  A    between atoms: _430  and  _431
REMARK  179  A    between atoms: _430  and  _433
REMARK  180  A    between atoms: _433  and  _434
REMARK  181  A    between atoms: _444  and  _446
REMARK  182  A    between atoms: _446  and  _447
REMARK  183  A    between atoms: _446  and  _449
REMARK  184  A    between atoms: _449  and  _450
REMARK  185  A    between atoms: _454  and  _455
REMARK  186  A    between atoms: _460  and  _462
REMARK  187  A    between atoms: _462  and  _463
REMARK  188  A    between atoms: _462  and  _465
REMARK  189  A    between atoms: _465  and  _466
REMARK  190  A    between atoms: _472  and  _473
REMARK  191  A    between atoms: _478  and  _480
REMARK  192  A    between atoms: _480  and  _481
REMARK  193  A    between atoms: _483  and  _485
REMARK  194  A    between atoms: _485  and  _486
REMARK  195  A    between atoms: _485  and  _488
REMARK  196  A    between atoms: _488  and  _489
REMARK  197  A    between atoms: _492  and  _494
REMARK  198  A    between atoms: _494  and  _495
REMARK  199  A    between atoms: _494  and  _497
REMARK  200  A    between atoms: _497  and  _498
REMARK  201  A    between atoms: _498  and  _499
REMARK  202  A    between atoms: _499  and  _500
REMARK  203  A    between atoms: _500  and  _501
REMARK  204  A    between atoms: _505  and  _507
REMARK  205  A    between atoms: _507  and  _508
REMARK  206  A    between atoms: _507  and  _510
REMARK  207  A    between atoms: _513  and  _515
REMARK  208  A    between atoms: _515  and  _516
REMARK  209  A    between atoms: _519  and  _521
REMARK  210  A    between atoms: _521  and  _522
REMARK  211  A    between atoms: _521  and  _524
REMARK  212  A    between atoms: _524  and  _525
REMARK  213  A    between atoms: _528  and  _530
REMARK  214  A    between atoms: _530  and  _531
REMARK  215  A    between atoms: _530  and  _533
REMARK  216  A    between atoms: _533  and  _534
REMARK  217  A    between atoms: _540  and  _541
REMARK  218  A    between atoms: _546  and  _548
REMARK  219  A    between atoms: _548  and  _549
REMARK  220  A    between atoms: _548  and  _551
REMARK  221  A    between atoms: _551  and  _552
REMARK  222  A    between atoms: _558  and  _560
REMARK  223  A    between atoms: _560  and  _561
REMARK  224  A    between atoms: _560  and  _563
REMARK  225  A    between atoms: _563  and  _564
REMARK  226  A    between atoms: _567  and  _569
REMARK  227  A    between atoms: _569  and  _570
REMARK  228  A    between atoms: _572  and  _574
REMARK  229  A    between atoms: _574  and  _575
REMARK  230  A    between atoms: _574  and  _577
REMARK  231  A    between atoms: _577  and  _578
REMARK  232  A    between atoms: _581  and  _583
REMARK  233  A    between atoms: _583  and  _584
REMARK  234  A    between atoms: _583  and  _586
REMARK  235  A    between atoms: _586  and  _587
REMARK  236  A    between atoms: _593  and  _595
REMARK  237  A    between atoms: _595  and  _596
REMARK  238  A    between atoms: _595  and  _598
REMARK  239  A    between atoms: _598  and  _599
REMARK  240  A    between atoms: _599  and  _600
REMARK  241  A    between atoms: _605  and  _607
REMARK  242  A    between atoms: _607  and  _608
REMARK  243  A    between atoms: _607  and  _610
REMARK  244  A    between atoms: _610  and  _611
REMARK  245  A    between atoms: _614  and  _616
REMARK  246  A    between atoms: _616  and  _617
REMARK  247  A    between atoms: _616  and  _619
REMARK  248  A    between atoms: _619  and  _620
REMARK  249  A    between atoms: _622  and  _624
REMARK  250  A    between atoms: _624  and  _625
REMARK  251  A    between atoms: _624  and  _627
REMARK  252  A    between atoms: _627  and  _628
REMARK  253  A    between atoms: _634  and  _636
REMARK  254  A    between atoms: _636  and  _637
REMARK  255  A    between atoms: _636  and  _639
REMARK  256  A    between atoms: _639  and  _640
REMARK  257  A    between atoms: _645  and  _646
REMARK  258  A    between atoms: _648  and  _650
REMARK  259  A    between atoms: _650  and  _651
REMARK  260  A    between atoms: _650  and  _653
REMARK  261  A    between atoms: _653  and  _654
REMARK                            x       y       z     vdW  Elec       q    Type
REMARK                         _______ _______ _______ _____ _____    ______ ____
ROOT
ATOM      1  O   HOH     1      25.171   2.877 -42.935  0.00  0.00    +0.000 OA
ENDROOT
TORSDOF 0
REMARK  Name = ../refined-set-2016/4idn/4idn_pocket.pdb
REMARK  261 active torsions:
REMARK  status: ('A' for Active; 'I' for Inactive)
REMARK    1  A    between atoms: _1  and  _3
REMARK    2  A    between atoms: _3  and  _4
REMARK    3  A    between atoms: _3  and  _6
REMARK    4  A    between atoms: _9  and  _11
REMARK    5  A    between atoms: _11  and  _12
REMARK    6  A    between atoms: _15  and  _17
REMARK    7  A    between atoms: _17  and  _18
REMARK    8  A    between atoms: _20  and  _22
REMARK    9  A    between atoms: _22  and  _23
REMARK   10  A    between atoms: _26  and  _28
REMARK   11  A    between atoms: _28  and  _29
REMARK   12  A    between atoms: _28  and  _31
REMARK   13  A    between atoms: _31  and  _32
REMARK   14  A    between atoms: _38  and  _40
REMARK   15  A    between atoms: _40  and  _41
REMARK   16  A    between atoms: _40  and  _43
REMARK   17  A    between atoms: _43  and  _44
REMARK   18  A    between atoms: _44  and  _45
REMARK   19  A    between atoms: _45  and  _46
REMARK   20  A    between atoms: _55  and  _57
REMARK   21  A    between atoms: _57  and  _58
REMARK   22  A    between atoms: _57  and  _60
REMARK   23  A    between atoms: _60  and  _61
REMARK   24  A    between atoms: _61  and  _62
REMARK   25  A    between atoms: _62  and  _63
REMARK   26  A    between atoms: _63  and  _64
REMARK   27  A    between atoms: _68  and  _70
REMARK   28  A    between atoms: _70  and  _71
REMARK   29  A    between atoms: _73  and  _75
REMARK   30  A    between atoms: _75  and  _76
REMARK   31  A    between atoms: _75  and  _78
REMARK   32  A    between atoms: _78  and  _79
REMARK   33  A    between atoms: _79  and  _80
REMARK   34  A    between atoms: _80  and  _81
REMARK   35  A    between atoms: _81  and  _82
REMARK   36  A    between atoms: _86  and  _88
REMARK   37  A    between atoms: _88  and  _89
REMARK   38  A    between atoms: _88  and  _91
REMARK   39  A    between atoms: _91  and  _92
REMARK   40  A    between atoms: _94  and  _96
REMARK   41  A    between atoms: _96  and  _97
REMARK   42  A    between atoms: _96  and  _99
REMARK   43  A    between atoms: _99  and  _100
REMARK   44  A    between atoms: _106  and  _108
REMARK   45  A    between atoms: _108  and  _109
REMARK   46  A    between atoms: _108  and  _111
REMARK   47  A    between atoms: _111  and  _112
REMARK   48  A    between atoms: _115  and  _117
REMARK   49  A    between atoms: _117  and  _118
REMARK   50  A    between atoms: _117  and  _120
REMARK   51  A    between atoms: _120  and  _121
REMARK   52  A    between atoms: _121  and  _122
REMARK   53  A    between atoms: _124  and  _126
REMARK   54  A    between atoms: _126  and  _127
REMARK   55  A    between atoms: _126  and  _129
REMARK   56  A    between atoms: _129  and  _130
REMARK   57  A    between atoms: _133  and  _135
REMARK   58  A    between atoms: _135  and  _136
REMARK   59  A    between atoms: _135  and  _138
REMARK   60  A    between atoms: _138  and  _139
REMARK   61  A    between atoms: _145  and  _147
REMARK   62  A    between atoms: _147  and  _148
REMARK   63  A    between atoms: _147  and  _150
REMARK   64  A    between atoms: _150  and  _151
REMARK   65  A    between atoms: _154  and  _156
REMARK   66  A    between atoms: _156  and  _157
REMARK   67  A    between atoms: _156  and  _159
REMARK   68  A    between atoms: _159  and  _160
REMARK   69  A    between atoms: _166  and  _168
REMARK   70  A    between atoms: _168  and  _169
REMARK   71  A    between atoms: _168  and  _171
REMARK   72  A    between atoms: _171  and  _172
REMARK   73  A    between atoms: _174  and  _176
REMARK   74  A    between atoms: _176  and  _177
REMARK   75  A    between atoms: _176  and  _179
REMARK   76  A    between atoms: _179  and  _180
REMARK   77  A    between atoms: _190  and  _192
REMARK   78  A    between atoms: _192  and  _193
REMARK   79  A    between atoms: _192  and  _195
REMARK   80  A    between atoms: _195  and  _196
REMARK   81  A    between atoms: _196  and  _197
REMARK   82  A    between atoms: _197  and  _198
REMARK   83  A    between atoms: _207  and  _209
REMARK   84  A    between atoms: _209  and  _210
REMARK   85  A    between atoms: _212  and  _214
REMARK   86  A    between atoms: _214  and  _215
REMARK   87  A    between atoms: _217  and  _219
REMARK   88  A    between atoms: _219  and  _220
REMARK   89  A    between atoms: _219  and  _222
REMARK   90  A    between atoms: _222  and  _223
REMARK   91  A    between atoms: _225  and  _227
REMARK   92  A    between atoms: _227  and  _228
REMARK   93  A    between atoms: _227  and  _230
REMARK   94  A    between atoms: _230  and  _231
REMARK   95  A    between atoms: _231  and  _232
REMARK   96  A    between atoms: _235  and  _237
REMARK   97  A    between atoms: _237  and  _238
REMARK   98  A    between atoms: _237  and  _240
REMARK   99  A    between atoms: _240  and  _241
REMARK  100  A    between atoms: _241  and  _242
REMARK  101  A    between atoms: _242  and  _243
REMARK  102  A    between atoms: _252  and  _254
REMARK  103  A    between atoms: _254  and  _255
REMARK  104  A    between atoms: _254  and  _257
REMARK  105  A    between atoms: _257  and  _258
REMARK  106  A    between atoms: _258  and  _259
REMARK  107  A    between atoms: _262  and  _264
REMARK  108  A    between atoms: _264  and  _265
REMARK  109  A    between atoms: _264  and  _267
REMARK  110  A    between atoms: _267  and  _268
REMARK  111  A    between atoms: _271  and  _273
REMARK  112  A    between atoms: _273  and  _274
REMARK  113  A    between atoms: _273  and  _276
REMARK  114  A    between atoms: _276  and  _277
REMARK  115  A    between atoms: _280  and  _282
REMARK  116  A    between atoms: _282  and  _283
REMARK  117  A    between atoms: _282  and  _285
REMARK  118  A    between atoms: _285  and  _286
REMARK  119  A    between atoms: _286  and  _287
REMARK  120  A    between atoms: _292  and  _294
REMARK  121  A    between atoms: _294  and  _295
REMARK  122  A    between atoms: _294  and  _297
REMARK  123  A    between atoms: _297  and  _298
REMARK  124  A    between atoms: _301  and  _303
REMARK  125  A    between atoms: _303  and  _304
REMARK  126  A    between atoms: _303  and  _306
REMARK  127  A    between atoms: _306  and  _307
REMARK  128  A    between atoms: _310  and  _312
REMARK  129  A    between atoms: _312  and  _313
REMARK  130  A    between atoms: _312  and  _315
REMARK  131  A    between atoms: _315  and  _316
REMARK  132  A    between atoms: _316  and  _317
REMARK  133  A    between atoms: _322  and  _324
REMARK  134  A    between atoms: _324  and  _325
REMARK  135  A    between atoms: _327  and  _329
REMARK  136  A    between atoms: _329  and  _330
REMARK  137  A    between atoms: _329  and  _332
REMARK  138  A    between atoms: _332  and  _333
REMARK  139  A    between atoms: _336  and  _338
REMARK  140  A    between atoms: _338  and  _339
REMARK  141  A    between atoms: _338  and  _341
REMARK  142  A    between atoms: _341  and  _342
REMARK  143  A    between atoms: _345  and  _347
REMARK  144  A    between atoms: _347  and  _348
REMARK  145  A    between atoms: _347  and  _350
REMARK  146  A    between atoms: _350  and  _351
REMARK  147  A    between atoms: _356  and  _358
REMARK  148  A    between atoms: _358  and  _359
REMARK  149  A    between atoms: _358  and  _361
REMARK  150  A    between atoms: _361  and  _362
REMARK  151  A    between atoms: _365  and  _367
REMARK  152  A    between atoms: _367  and  _368
REMARK  153  A    between atoms: _367  and  _370
REMARK  154  A    between atoms: _370  and  _371
REMARK  155  A    between atoms: _373  and  _375
REMARK  156  A    between atoms: _375  and  _376
REMARK  157  A    between atoms: _375  and  _378
REMARK  158  A    between atoms: _378  and  _379
REMARK  159  A    between atoms: _379  and  _380
REMARK  160  A    between atoms: _385  and  _387
REMARK  161  A    between atoms: _387  and  _388
REMARK  162  A    between atoms: _387  and  _390
REMARK  163  A    between atoms: _390  and  _391
REMARK  164  A    between atoms: _394  and  _396
REMARK  165  A    between atoms: _396  and  _397
REMARK  166  A    between atoms: _396  and  _399
REMARK  167  A    between atoms: _402  and  _404
REMARK  168  A    between atoms: _404  and  _405
REMARK  169  A    between atoms: _404  and  _407
REMARK  170  A    between atoms: _407  and  _408
REMARK  171  A    between atoms: _408  and  _409
REMARK  172  A    between atoms: _409  and  _410
REMARK  173  A    between atoms: _419  and  _421
REMARK  174  A    between atoms: _421  and  _422
REMARK  175  A    between atoms: _421  and  _424
REMARK  176  A    between atoms: _424  and  _425
REMARK  177  A    between atoms: _428  and  _430
REMARK  178  A    between atoms: _430  and  _431
REMARK  179  A    between atoms: _430  and  _433
REMARK  180  A    between atoms: _433  and  _434
REMARK  181  A    between atoms: _444  and  _446
REMARK  182  A    between atoms: _446  and  _447
REMARK  183  A    between atoms: _446  and  _449
REMARK  184  A    between atoms: _449  and  _450
REMARK  185  A    between atoms: _454  and  _455
REMARK  186  A    between atoms: _460  and  _462
REMARK  187  A    between atoms: _462  and  _463
REMARK  188  A    between atoms: _462  and  _465
REMARK  189  A    between atoms: _465  and  _466
REMARK  190  A    between atoms: _472  and  _473
REMARK  191  A    between atoms: _478  and  _480
REMARK  192  A    between atoms: _480  and  _481
REMARK  193  A    between atoms: _483  and  _485
REMARK  194  A    between atoms: _485  and  _486
REMARK  195  A    between atoms: _485  and  _488
REMARK  196  A    between atoms: _488  and  _489
REMARK  197  A    between atoms: _492  and  _494
REMARK  198  A    between atoms: _494  and  _495
REMARK  199  A    between atoms: _494  and  _497
REMARK  200  A    between atoms: _497  and  _498
REMARK  201  A    between atoms: _498  and  _499
REMARK  202  A    between atoms: _499  and  _500
REMARK  203  A    between atoms: _500  and  _501
REMARK  204  A    between atoms: _505  and  _507
REMARK  205  A    between atoms: _507  and  _508
REMARK  206  A    between atoms: _507  and  _510
REMARK  207  A    between atoms: _513  and  _515
REMARK  208  A    between atoms: _515  and  _516
REMARK  209  A    between atoms: _519  and  _521
REMARK  210  A    between atoms: _521  and  _522
REMARK  211  A    between atoms: _521  and  _524
REMARK  212  A    between atoms: _524  and  _525
REMARK  213  A    between atoms: _528  and  _530
REMARK  214  A    between atoms: _530  and  _531
REMARK  215  A    between atoms: _530  and  _533
REMARK  216  A    between atoms: _533  and  _534
REMARK  217  A    between atoms: _540  and  _541
REMARK  218  A    between atoms: _546  and  _548
REMARK  219  A    between atoms: _548  and  _549
REMARK  220  A    between atoms: _548  and  _551
REMARK  221  A    between atoms: _551  and  _552
REMARK  222  A    between atoms: _558  and  _560
REMARK  223  A    between atoms: _560  and  _561
REMARK  224  A    between atoms: _560  and  _563
REMARK  225  A    between atoms: _563  and  _564
REMARK  226  A    between atoms: _567  and  _569
REMARK  227  A    between atoms: _569  and  _570
REMARK  228  A    between atoms: _572  and  _574
REMARK  229  A    between atoms: _574  and  _575
REMARK  230  A    between atoms: _574  and  _577
REMARK  231  A    between atoms: _577  and  _578
REMARK  232  A    between atoms: _581  and  _583
REMARK  233  A    between atoms: _583  and  _584
REMARK  234  A    between atoms: _583  and  _586
REMARK  235  A    between atoms: _586  and  _587
REMARK  236  A    between atoms: _593  and  _595
REMARK  237  A    between atoms: _595  and  _596
REMARK  238  A    between atoms: _595  and  _598
REMARK  239  A    between atoms: _598  and  _599
REMARK  240  A    between atoms: _599  and  _600
REMARK  241  A    between atoms: _605  and  _607
REMARK  242  A    between atoms: _607  and  _608
REMARK  243  A    between atoms: _607  and  _610
REMARK  244  A    between atoms: _610  and  _611
REMARK  245  A    between atoms: _614  and  _616
REMARK  246  A    between atoms: _616  and  _617
REMARK  247  A    between atoms: _616  and  _619
REMARK  248  A    between atoms: _619  and  _620
REMARK  249  A    between atoms: _622  and  _624
REMARK  250  A    between atoms: _624  and  _625
REMARK  251  A    between atoms: _624  and  _627
REMARK  252  A    between atoms: _627  and  _628
REMARK  253  A    between atoms: _634  and  _636
REMARK  254  A    between atoms: _636  and  _637
REMARK  255  A    between atoms: _636  and  _639
REMARK  256  A    between atoms: _639  and  _640
REMARK  257  A    between atoms: _645  and  _646
REMARK  258  A    between atoms: _648  and  _650
REMARK  259  A    between atoms: _650  and  _651
REMARK  260  A    between atoms: _650  and  _653
REMARK  261  A    between atoms: _653  and  _654
REMARK                            x       y       z     vdW  Elec       q    Type
REMARK                         _______ _______ _______ _____ _____    ______ ____
ROOT
ATOM      1  O   HOH     1      29.612   1.363 -46.245  0.00  0.00    +0.000 OA
ENDROOT
TORSDOF 0
