REMARK  Name = ../refined-set-2016/1c5o/1c5o_pocket.pdb
REMARK  130 active torsions:
REMARK  status: ('A' for Active; 'I' for Inactive)
REMARK    1  A    between atoms: _1  and  _5
REMARK    2  A    between atoms: _5  and  _6
REMARK    3  A    between atoms: _5  and  _8
REMARK    4  A    between atoms: _8  and  _9
REMARK    5  A    between atoms: _12  and  _14
REMARK    6  A    between atoms: _14  and  _15
REMARK    7  A    between atoms: _14  and  _17
REMARK    8  A    between atoms: _20  and  _22
REMARK    9  A    between atoms: _22  and  _23
REMARK   10  A    between atoms: _22  and  _25
REMARK   11  A    between atoms: _25  and  _26
REMARK   12  A    between atoms: _31  and  _33
REMARK   13  A    between atoms: _33  and  _34
REMARK   14  A    between atoms: _33  and  _36
REMARK   15  A    between atoms: _36  and  _37
REMARK   16  A    between atoms: _40  and  _42
REMARK   17  A    between atoms: _42  and  _43
REMARK   18  A    between atoms: _42  and  _45
REMARK   19  A    between atoms: _45  and  _46
REMARK   20  A    between atoms: _49  and  _51
REMARK   21  A    between atoms: _51  and  _52
REMARK   22  A    between atoms: _51  and  _54
REMARK   23  A    between atoms: _57  and  _59
REMARK   24  A    between atoms: _59  and  _60
REMARK   25  A    between atoms: _59  and  _62
REMARK   26  A    between atoms: _62  and  _63
REMARK   27  A    between atoms: _68  and  _70
REMARK   28  A    between atoms: _70  and  _71
REMARK   29  A    between atoms: _70  and  _73
REMARK   30  A    between atoms: _73  and  _74
REMARK   31  A    between atoms: _74  and  _75
REMARK   32  A    between atoms: _78  and  _80
REMARK   33  A    between atoms: _80  and  _81
REMARK   34  A    between atoms: _80  and  _83
REMARK   35  A    between atoms: _83  and  _84
REMARK   36  A    between atoms: _87  and  _89
REMARK   37  A    between atoms: _89  and  _90
REMARK   38  A    between atoms: _93  and  _95
REMARK   39  A    between atoms: _95  and  _96
REMARK   40  A    between atoms: _98  and  _100
REMARK   41  A    between atoms: _100  and  _101
REMARK   42  A    between atoms: _100  and  _103
REMARK   43  A    between atoms: _103  and  _104
REMARK   44  A    between atoms: _107  and  _109
REMARK   45  A    between atoms: _109  and  _110
REMARK   46  A    between atoms: _113  and  _115
REMARK   47  A    between atoms: _115  and  _116
REMARK   48  A    between atoms: _115  and  _118
REMARK   49  A    between atoms: _118  and  _119
REMARK   50  A    between atoms: _119  and  _229
REMARK   51  A    between atoms: _120  and  _122
REMARK   52  A    between atoms: _122  and  _123
REMARK   53  A    between atoms: _122  and  _125
REMARK   54  A    between atoms: _125  and  _126
REMARK   55  A    between atoms: _126  and  _127
REMARK   56  A    between atoms: _130  and  _132
REMARK   57  A    between atoms: _132  and  _133
REMARK   58  A    between atoms: _135  and  _137
REMARK   59  A    between atoms: _137  and  _138
REMARK   60  A    between atoms: _137  and  _140
REMARK   61  A    between atoms: _140  and  _141
REMARK   62  A    between atoms: _144  and  _146
REMARK   63  A    between atoms: _146  and  _147
REMARK   64  A    between atoms: _146  and  _149
REMARK   65  A    between atoms: _149  and  _150
REMARK   66  A    between atoms: _152  and  _154
REMARK   67  A    between atoms: _154  and  _155
REMARK   68  A    between atoms: _157  and  _159
REMARK   69  A    between atoms: _159  and  _160
REMARK   70  A    between atoms: _162  and  _164
REMARK   71  A    between atoms: _164  and  _165
REMARK   72  A    between atoms: _164  and  _167
REMARK   73  A    between atoms: _167  and  _168
REMARK   74  A    between atoms: _171  and  _173
REMARK   75  A    between atoms: _173  and  _174
REMARK   76  A    between atoms: _173  and  _176
REMARK   77  A    between atoms: _179  and  _181
REMARK   78  A    between atoms: _181  and  _182
REMARK   79  A    between atoms: _181  and  _184
REMARK   80  A    between atoms: _184  and  _185
REMARK   81  A    between atoms: _187  and  _189
REMARK   82  A    between atoms: _189  and  _190
REMARK   83  A    between atoms: _189  and  _192
REMARK   84  A    between atoms: _192  and  _193
REMARK   85  A    between atoms: _203  and  _205
REMARK   86  A    between atoms: _205  and  _206
REMARK   87  A    between atoms: _208  and  _210
REMARK   88  A    between atoms: _210  and  _211
REMARK   89  A    between atoms: _210  and  _213
REMARK   90  A    between atoms: _213  and  _214
REMARK   91  A    between atoms: _214  and  _215
REMARK   92  A    between atoms: _218  and  _220
REMARK   93  A    between atoms: _220  and  _221
REMARK   94  A    between atoms: _223  and  _225
REMARK   95  A    between atoms: _225  and  _226
REMARK   96  A    between atoms: _225  and  _228
REMARK   97  A    between atoms: _228  and  _229
REMARK   98  A    between atoms: _230  and  _232
REMARK   99  A    between atoms: _232  and  _233
REMARK  100  A    between atoms: _232  and  _235
REMARK  101  A    between atoms: _235  and  _236
REMARK  102  A    between atoms: _239  and  _241
REMARK  103  A    between atoms: _241  and  _242
REMARK  104  A    between atoms: _241  and  _244
REMARK  105  A    between atoms: _244  and  _245
REMARK  106  A    between atoms: _245  and  _246
REMARK  107  A    between atoms: _246  and  _247
REMARK  108  A    between atoms: _256  and  _258
REMARK  109  A    between atoms: _258  and  _259
REMARK  110  A    between atoms: _258  and  _261
REMARK  111  A    between atoms: _261  and  _262
REMARK  112  A    between atoms: _262  and  _263
REMARK  113  A    between atoms: _263  and  _264
REMARK  114  A    between atoms: _264  and  _265
REMARK  115  A    between atoms: _269  and  _271
REMARK  116  A    between atoms: _271  and  _272
REMARK  117  A    between atoms: _271  and  _274
REMARK  118  A    between atoms: _274  and  _275
REMARK  119  A    between atoms: _280  and  _281
REMARK  120  A    between atoms: _283  and  _285
REMARK  121  A    between atoms: _285  and  _286
REMARK  122  A    between atoms: _288  and  _290
REMARK  123  A    between atoms: _290  and  _291
REMARK  124  A    between atoms: _290  and  _293
REMARK  125  A    between atoms: _293  and  _294
REMARK  126  A    between atoms: _300  and  _302
REMARK  127  A    between atoms: _302  and  _303
REMARK  128  A    between atoms: _302  and  _305
REMARK  129  A    between atoms: _305  and  _306
REMARK  130  A    between atoms: _311  and  _312
REMARK                            x       y       z     vdW  Elec       q    Type
REMARK                         _______ _______ _______ _____ _____    ______ ____
ROOT
ATOM      1  C   ILE A   1       3.096 -10.095  19.928  0.00  0.00    +0.202 C 
ATOM      2  N   VAL A   2       3.081 -10.690  21.079  0.00  0.00    -0.301 N 
ATOM      3  H   VAL A   2       3.779 -10.430  21.805  0.00  0.00    +0.150 HD
ATOM      4  O   ILE A   1       2.285 -10.318  19.060  0.00  0.00    -0.277 OA
ENDROOT
BRANCH   1   5
ATOM      5  CA  ILE A   1       4.152  -9.024  19.650  0.00  0.00    +0.013 C 
BRANCH   5   6
ATOM      6  N   ILE A   1       4.577  -9.427  18.302  0.00  0.00    +0.387 N 
ATOM      7  H1  ILE A   1       4.955 -10.395  18.334  0.00  0.00    -0.089 HD
ATOM      8  H2  ILE A   1       5.314  -8.777  17.963  0.00  0.00    -0.089 HD
ATOM      9  H3  ILE A   1       3.761  -9.393  17.658  0.00  0.00    -0.089 HD
ENDBRANCH   5   6
BRANCH   5  10
ATOM     10  CB  ILE A   1       3.526  -7.667  19.566  0.00  0.00    -0.011 C 
ATOM     11  CG2 ILE A   1       2.784  -7.360  20.818  0.00  0.00    -0.002 C 
BRANCH  10  12
ATOM     12  CG1 ILE A   1       4.564  -6.568  19.226  0.00  0.00    -0.002 C 
ATOM     13  CD1 ILE A   1       5.654  -6.452  20.358  0.00  0.00    -0.000 C 
ENDBRANCH  10  12
ENDBRANCH   5  10
ENDBRANCH   1   5
BRANCH   2  14
ATOM     14  CA  VAL A   2       2.059 -11.754  21.371  0.00  0.00    +0.137 C 
BRANCH  14  15
ATOM     15  CB  VAL A   2       2.785 -12.883  22.120  0.00  0.00    +0.026 C 
ATOM     16  CG2 VAL A   2       1.948 -14.162  22.347  0.00  0.00    +0.002 C 
ATOM     17  CG1 VAL A   2       4.110 -13.283  21.422  0.00  0.00    +0.002 C 
ENDBRANCH  14  15
BRANCH  14  18
ATOM     18  C   VAL A   2       1.034 -11.036  22.248  0.00  0.00    +0.227 C 
ATOM     19  O   VAL A   2       1.451 -10.295  23.119  0.00  0.00    -0.286 OA
ENDBRANCH  14  18
ENDBRANCH   2  14
TORSDOF 7
REMARK  Name = ../refined-set-2016/1c5o/1c5o_pocket.pdb
REMARK  130 active torsions:
REMARK  status: ('A' for Active; 'I' for Inactive)
REMARK    1  A    between atoms: _1  and  _5
REMARK    2  A    between atoms: _5  and  _6
REMARK    3  A    between atoms: _5  and  _8
REMARK    4  A    between atoms: _8  and  _9
REMARK    5  A    between atoms: _12  and  _14
REMARK    6  A    between atoms: _14  and  _15
REMARK    7  A    between atoms: _14  and  _17
REMARK    8  A    between atoms: _20  and  _22
REMARK    9  A    between atoms: _22  and  _23
REMARK   10  A    between atoms: _22  and  _25
REMARK   11  A    between atoms: _25  and  _26
REMARK   12  A    between atoms: _31  and  _33
REMARK   13  A    between atoms: _33  and  _34
REMARK   14  A    between atoms: _33  and  _36
REMARK   15  A    between atoms: _36  and  _37
REMARK   16  A    between atoms: _40  and  _42
REMARK   17  A    between atoms: _42  and  _43
REMARK   18  A    between atoms: _42  and  _45
REMARK   19  A    between atoms: _45  and  _46
REMARK   20  A    between atoms: _49  and  _51
REMARK   21  A    between atoms: _51  and  _52
REMARK   22  A    between atoms: _51  and  _54
REMARK   23  A    between atoms: _57  and  _59
REMARK   24  A    between atoms: _59  and  _60
REMARK   25  A    between atoms: _59  and  _62
REMARK   26  A    between atoms: _62  and  _63
REMARK   27  A    between atoms: _68  and  _70
REMARK   28  A    between atoms: _70  and  _71
REMARK   29  A    between atoms: _70  and  _73
REMARK   30  A    between atoms: _73  and  _74
REMARK   31  A    between atoms: _74  and  _75
REMARK   32  A    between atoms: _78  and  _80
REMARK   33  A    between atoms: _80  and  _81
REMARK   34  A    between atoms: _80  and  _83
REMARK   35  A    between atoms: _83  and  _84
REMARK   36  A    between atoms: _87  and  _89
REMARK   37  A    between atoms: _89  and  _90
REMARK   38  A    between atoms: _93  and  _95
REMARK   39  A    between atoms: _95  and  _96
REMARK   40  A    between atoms: _98  and  _100
REMARK   41  A    between atoms: _100  and  _101
REMARK   42  A    between atoms: _100  and  _103
REMARK   43  A    between atoms: _103  and  _104
REMARK   44  A    between atoms: _107  and  _109
REMARK   45  A    between atoms: _109  and  _110
REMARK   46  A    between atoms: _113  and  _115
REMARK   47  A    between atoms: _115  and  _116
REMARK   48  A    between atoms: _115  and  _118
REMARK   49  A    between atoms: _118  and  _119
REMARK   50  A    between atoms: _119  and  _229
REMARK   51  A    between atoms: _120  and  _122
REMARK   52  A    between atoms: _122  and  _123
REMARK   53  A    between atoms: _122  and  _125
REMARK   54  A    between atoms: _125  and  _126
REMARK   55  A    between atoms: _126  and  _127
REMARK   56  A    between atoms: _130  and  _132
REMARK   57  A    between atoms: _132  and  _133
REMARK   58  A    between atoms: _135  and  _137
REMARK   59  A    between atoms: _137  and  _138
REMARK   60  A    between atoms: _137  and  _140
REMARK   61  A    between atoms: _140  and  _141
REMARK   62  A    between atoms: _144  and  _146
REMARK   63  A    between atoms: _146  and  _147
REMARK   64  A    between atoms: _146  and  _149
REMARK   65  A    between atoms: _149  and  _150
REMARK   66  A    between atoms: _152  and  _154
REMARK   67  A    between atoms: _154  and  _155
REMARK   68  A    between atoms: _157  and  _159
REMARK   69  A    between atoms: _159  and  _160
REMARK   70  A    between atoms: _162  and  _164
REMARK   71  A    between atoms: _164  and  _165
REMARK   72  A    between atoms: _164  and  _167
REMARK   73  A    between atoms: _167  and  _168
REMARK   74  A    between atoms: _171  and  _173
REMARK   75  A    between atoms: _173  and  _174
REMARK   76  A    between atoms: _173  and  _176
REMARK   77  A    between atoms: _179  and  _181
REMARK   78  A    between atoms: _181  and  _182
REMARK   79  A    between atoms: _181  and  _184
REMARK   80  A    between atoms: _184  and  _185
REMARK   81  A    between atoms: _187  and  _189
REMARK   82  A    between atoms: _189  and  _190
REMARK   83  A    between atoms: _189  and  _192
REMARK   84  A    between atoms: _192  and  _193
REMARK   85  A    between atoms: _203  and  _205
REMARK   86  A    between atoms: _205  and  _206
REMARK   87  A    between atoms: _208  and  _210
REMARK   88  A    between atoms: _210  and  _211
REMARK   89  A    between atoms: _210  and  _213
REMARK   90  A    between atoms: _213  and  _214
REMARK   91  A    between atoms: _214  and  _215
REMARK   92  A    between atoms: _218  and  _220
REMARK   93  A    between atoms: _220  and  _221
REMARK   94  A    between atoms: _223  and  _225
REMARK   95  A    between atoms: _225  and  _226
REMARK   96  A    between atoms: _225  and  _228
REMARK   97  A    between atoms: _228  and  _229
REMARK   98  A    between atoms: _230  and  _232
REMARK   99  A    between atoms: _232  and  _233
REMARK  100  A    between atoms: _232  and  _235
REMARK  101  A    between atoms: _235  and  _236
REMARK  102  A    between atoms: _239  and  _241
REMARK  103  A    between atoms: _241  and  _242
REMARK  104  A    between atoms: _241  and  _244
REMARK  105  A    between atoms: _244  and  _245
REMARK  106  A    between atoms: _245  and  _246
REMARK  107  A    between atoms: _246  and  _247
REMARK  108  A    between atoms: _256  and  _258
REMARK  109  A    between atoms: _258  and  _259
REMARK  110  A    between atoms: _258  and  _261
REMARK  111  A    between atoms: _261  and  _262
REMARK  112  A    between atoms: _262  and  _263
REMARK  113  A    between atoms: _263  and  _264
REMARK  114  A    between atoms: _264  and  _265
REMARK  115  A    between atoms: _269  and  _271
REMARK  116  A    between atoms: _271  and  _272
REMARK  117  A    between atoms: _271  and  _274
REMARK  118  A    between atoms: _274  and  _275
REMARK  119  A    between atoms: _280  and  _281
REMARK  120  A    between atoms: _283  and  _285
REMARK  121  A    between atoms: _285  and  _286
REMARK  122  A    between atoms: _288  and  _290
REMARK  123  A    between atoms: _290  and  _291
REMARK  124  A    between atoms: _290  and  _293
REMARK  125  A    between atoms: _293  and  _294
REMARK  126  A    between atoms: _300  and  _302
REMARK  127  A    between atoms: _302  and  _303
REMARK  128  A    between atoms: _302  and  _305
REMARK  129  A    between atoms: _305  and  _306
REMARK  130  A    between atoms: _311  and  _312
REMARK                            x       y       z     vdW  Elec       q    Type
REMARK                         _______ _______ _______ _____ _____    ______ ____
ROOT
ATOM      1  CB  HIS A   1      21.823  -9.453  19.100  0.00  0.00    +0.072 C 
ENDROOT
BRANCH   1   2
ATOM      2  CG  HIS A   1      20.361  -9.301  19.296  0.00  0.00    +0.082 A 
ATOM      3  ND1 HIS A   1      19.825  -8.519  20.138  0.00  0.00    -0.227 NA
ATOM      4  CE1 HIS A   1      18.529  -8.577  20.065  0.00  0.00    +0.199 A 
ATOM      5  NE2 HIS A   1      18.155  -9.418  19.151  0.00  0.00    -0.221 NA
ATOM      6  CD2 HIS A   1      19.308  -9.876  18.670  0.00  0.00    +0.115 A 
ENDBRANCH   1   2
BRANCH   1   7
ATOM      7  CA  HIS A   1      22.338  -8.444  18.054  0.00  0.00    +0.139 C 
BRANCH   7   8
ATOM      8  N   HIS A   1      22.401  -7.077  18.640  0.00  0.00    -0.239 NA
ATOM      9  H   HIS A   1      21.915  -6.817  19.522  0.00  0.00    +0.142 HD
ENDBRANCH   7   8
BRANCH   7  10
ATOM     10  C   HIS A   1      21.480  -8.525  16.788  0.00  0.00    +0.224 C 
ATOM     11  O   HIS A   1      21.163  -9.620  16.391  0.00  0.00    -0.287 OA
ENDBRANCH   7  10
ENDBRANCH   1   7
TORSDOF 4
REMARK  Name = ../refined-set-2016/1c5o/1c5o_pocket.pdb
REMARK  130 active torsions:
REMARK  status: ('A' for Active; 'I' for Inactive)
REMARK    1  A    between atoms: _1  and  _5
REMARK    2  A    between atoms: _5  and  _6
REMARK    3  A    between atoms: _5  and  _8
REMARK    4  A    between atoms: _8  and  _9
REMARK    5  A    between atoms: _12  and  _14
REMARK    6  A    between atoms: _14  and  _15
REMARK    7  A    between atoms: _14  and  _17
REMARK    8  A    between atoms: _20  and  _22
REMARK    9  A    between atoms: _22  and  _23
REMARK   10  A    between atoms: _22  and  _25
REMARK   11  A    between atoms: _25  and  _26
REMARK   12  A    between atoms: _31  and  _33
REMARK   13  A    between atoms: _33  and  _34
REMARK   14  A    between atoms: _33  and  _36
REMARK   15  A    between atoms: _36  and  _37
REMARK   16  A    between atoms: _40  and  _42
REMARK   17  A    between atoms: _42  and  _43
REMARK   18  A    between atoms: _42  and  _45
REMARK   19  A    between atoms: _45  and  _46
REMARK   20  A    between atoms: _49  and  _51
REMARK   21  A    between atoms: _51  and  _52
REMARK   22  A    between atoms: _51  and  _54
REMARK   23  A    between atoms: _57  and  _59
REMARK   24  A    between atoms: _59  and  _60
REMARK   25  A    between atoms: _59  and  _62
REMARK   26  A    between atoms: _62  and  _63
REMARK   27  A    between atoms: _68  and  _70
REMARK   28  A    between atoms: _70  and  _71
REMARK   29  A    between atoms: _70  and  _73
REMARK   30  A    between atoms: _73  and  _74
REMARK   31  A    between atoms: _74  and  _75
REMARK   32  A    between atoms: _78  and  _80
REMARK   33  A    between atoms: _80  and  _81
REMARK   34  A    between atoms: _80  and  _83
REMARK   35  A    between atoms: _83  and  _84
REMARK   36  A    between atoms: _87  and  _89
REMARK   37  A    between atoms: _89  and  _90
REMARK   38  A    between atoms: _93  and  _95
REMARK   39  A    between atoms: _95  and  _96
REMARK   40  A    between atoms: _98  and  _100
REMARK   41  A    between atoms: _100  and  _101
REMARK   42  A    between atoms: _100  and  _103
REMARK   43  A    between atoms: _103  and  _104
REMARK   44  A    between atoms: _107  and  _109
REMARK   45  A    between atoms: _109  and  _110
REMARK   46  A    between atoms: _113  and  _115
REMARK   47  A    between atoms: _115  and  _116
REMARK   48  A    between atoms: _115  and  _118
REMARK   49  A    between atoms: _118  and  _119
REMARK   50  A    between atoms: _119  and  _229
REMARK   51  A    between atoms: _120  and  _122
REMARK   52  A    between atoms: _122  and  _123
REMARK   53  A    between atoms: _122  and  _125
REMARK   54  A    between atoms: _125  and  _126
REMARK   55  A    between atoms: _126  and  _127
REMARK   56  A    between atoms: _130  and  _132
REMARK   57  A    between atoms: _132  and  _133
REMARK   58  A    between atoms: _135  and  _137
REMARK   59  A    between atoms: _137  and  _138
REMARK   60  A    between atoms: _137  and  _140
REMARK   61  A    between atoms: _140  and  _141
REMARK   62  A    between atoms: _144  and  _146
REMARK   63  A    between atoms: _146  and  _147
REMARK   64  A    between atoms: _146  and  _149
REMARK   65  A    between atoms: _149  and  _150
REMARK   66  A    between atoms: _152  and  _154
REMARK   67  A    between atoms: _154  and  _155
REMARK   68  A    between atoms: _157  and  _159
REMARK   69  A    between atoms: _159  and  _160
REMARK   70  A    between atoms: _162  and  _164
REMARK   71  A    between atoms: _164  and  _165
REMARK   72  A    between atoms: _164  and  _167
REMARK   73  A    between atoms: _167  and  _168
REMARK   74  A    between atoms: _171  and  _173
REMARK   75  A    between atoms: _173  and  _174
REMARK   76  A    between atoms: _173  and  _176
REMARK   77  A    between atoms: _179  and  _181
REMARK   78  A    between atoms: _181  and  _182
REMARK   79  A    between atoms: _181  and  _184
REMARK   80  A    between atoms: _184  and  _185
REMARK   81  A    between atoms: _187  and  _189
REMARK   82  A    between atoms: _189  and  _190
REMARK   83  A    between atoms: _189  and  _192
REMARK   84  A    between atoms: _192  and  _193
REMARK   85  A    between atoms: _203  and  _205
REMARK   86  A    between atoms: _205  and  _206
REMARK   87  A    between atoms: _208  and  _210
REMARK   88  A    between atoms: _210  and  _211
REMARK   89  A    between atoms: _210  and  _213
REMARK   90  A    between atoms: _213  and  _214
REMARK   91  A    between atoms: _214  and  _215
REMARK   92  A    between atoms: _218  and  _220
REMARK   93  A    between atoms: _220  and  _221
REMARK   94  A    between atoms: _223  and  _225
REMARK   95  A    between atoms: _225  and  _226
REMARK   96  A    between atoms: _225  and  _228
REMARK   97  A    between atoms: _228  and  _229
REMARK   98  A    between atoms: _230  and  _232
REMARK   99  A    between atoms: _232  and  _233
REMARK  100  A    between atoms: _232  and  _235
REMARK  101  A    between atoms: _235  and  _236
REMARK  102  A    between atoms: _239  and  _241
REMARK  103  A    between atoms: _241  and  _242
REMARK  104  A    between atoms: _241  and  _244
REMARK  105  A    between atoms: _244  and  _245
REMARK  106  A    between atoms: _245  and  _246
REMARK  107  A    between atoms: _246  and  _247
REMARK  108  A    between atoms: _256  and  _258
REMARK  109  A    between atoms: _258  and  _259
REMARK  110  A    between atoms: _258  and  _261
REMARK  111  A    between atoms: _261  and  _262
REMARK  112  A    between atoms: _262  and  _263
REMARK  113  A    between atoms: _263  and  _264
REMARK  114  A    between atoms: _264  and  _265
REMARK  115  A    between atoms: _269  and  _271
REMARK  116  A    between atoms: _271  and  _272
REMARK  117  A    between atoms: _271  and  _274
REMARK  118  A    between atoms: _274  and  _275
REMARK  119  A    between atoms: _280  and  _281
REMARK  120  A    between atoms: _283  and  _285
REMARK  121  A    between atoms: _285  and  _286
REMARK  122  A    between atoms: _288  and  _290
REMARK  123  A    between atoms: _290  and  _291
REMARK  124  A    between atoms: _290  and  _293
REMARK  125  A    between atoms: _293  and  _294
REMARK  126  A    between atoms: _300  and  _302
REMARK  127  A    between atoms: _302  and  _303
REMARK  128  A    between atoms: _302  and  _305
REMARK  129  A    between atoms: _305  and  _306
REMARK  130  A    between atoms: _311  and  _312
REMARK                            x       y       z     vdW  Elec       q    Type
REMARK                         _______ _______ _______ _____ _____    ______ ____
ROOT
ATOM      1  CA  LEU A   1      23.671  -9.667  25.442  0.00  0.00    +0.133 C 
ENDROOT
BRANCH   1   2
ATOM      2  N   LEU A   1      24.186 -10.791  26.284  0.00  0.00    -0.239 NA
ATOM      3  H   LEU A   1      25.040 -11.303  25.984  0.00  0.00    +0.142 HD
ENDBRANCH   1   2
BRANCH   1   4
ATOM      4  C   LEU A   1      23.534  -8.392  26.243  0.00  0.00    +0.224 C 
ATOM      5  O   LEU A   1      22.556  -7.665  26.170  0.00  0.00    -0.287 OA
ENDBRANCH   1   4
BRANCH   1   6
ATOM      6  CB  LEU A   1      22.292 -10.003  24.860  0.00  0.00    +0.025 C 
BRANCH   6   7
ATOM      7  CG  LEU A   1      22.348 -11.167  23.872  0.00  0.00    +0.002 C 
ATOM      8  CD2 LEU A   1      20.907 -11.388  23.409  0.00  0.00    +0.000 C 
ATOM      9  CD1 LEU A   1      23.229 -10.793  22.665  0.00  0.00    +0.000 C 
ENDBRANCH   6   7
ENDBRANCH   1   6
TORSDOF 4
REMARK  Name = ../refined-set-2016/1c5o/1c5o_pocket.pdb
REMARK  130 active torsions:
REMARK  status: ('A' for Active; 'I' for Inactive)
REMARK    1  A    between atoms: _1  and  _5
REMARK    2  A    between atoms: _5  and  _6
REMARK    3  A    between atoms: _5  and  _8
REMARK    4  A    between atoms: _8  and  _9
REMARK    5  A    between atoms: _12  and  _14
REMARK    6  A    between atoms: _14  and  _15
REMARK    7  A    between atoms: _14  and  _17
REMARK    8  A    between atoms: _20  and  _22
REMARK    9  A    between atoms: _22  and  _23
REMARK   10  A    between atoms: _22  and  _25
REMARK   11  A    between atoms: _25  and  _26
REMARK   12  A    between atoms: _31  and  _33
REMARK   13  A    between atoms: _33  and  _34
REMARK   14  A    between atoms: _33  and  _36
REMARK   15  A    between atoms: _36  and  _37
REMARK   16  A    between atoms: _40  and  _42
REMARK   17  A    between atoms: _42  and  _43
REMARK   18  A    between atoms: _42  and  _45
REMARK   19  A    between atoms: _45  and  _46
REMARK   20  A    between atoms: _49  and  _51
REMARK   21  A    between atoms: _51  and  _52
REMARK   22  A    between atoms: _51  and  _54
REMARK   23  A    between atoms: _57  and  _59
REMARK   24  A    between atoms: _59  and  _60
REMARK   25  A    between atoms: _59  and  _62
REMARK   26  A    between atoms: _62  and  _63
REMARK   27  A    between atoms: _68  and  _70
REMARK   28  A    between atoms: _70  and  _71
REMARK   29  A    between atoms: _70  and  _73
REMARK   30  A    between atoms: _73  and  _74
REMARK   31  A    between atoms: _74  and  _75
REMARK   32  A    between atoms: _78  and  _80
REMARK   33  A    between atoms: _80  and  _81
REMARK   34  A    between atoms: _80  and  _83
REMARK   35  A    between atoms: _83  and  _84
REMARK   36  A    between atoms: _87  and  _89
REMARK   37  A    between atoms: _89  and  _90
REMARK   38  A    between atoms: _93  and  _95
REMARK   39  A    between atoms: _95  and  _96
REMARK   40  A    between atoms: _98  and  _100
REMARK   41  A    between atoms: _100  and  _101
REMARK   42  A    between atoms: _100  and  _103
REMARK   43  A    between atoms: _103  and  _104
REMARK   44  A    between atoms: _107  and  _109
REMARK   45  A    between atoms: _109  and  _110
REMARK   46  A    between atoms: _113  and  _115
REMARK   47  A    between atoms: _115  and  _116
REMARK   48  A    between atoms: _115  and  _118
REMARK   49  A    between atoms: _118  and  _119
REMARK   50  A    between atoms: _119  and  _229
REMARK   51  A    between atoms: _120  and  _122
REMARK   52  A    between atoms: _122  and  _123
REMARK   53  A    between atoms: _122  and  _125
REMARK   54  A    between atoms: _125  and  _126
REMARK   55  A    between atoms: _126  and  _127
REMARK   56  A    between atoms: _130  and  _132
REMARK   57  A    between atoms: _132  and  _133
REMARK   58  A    between atoms: _135  and  _137
REMARK   59  A    between atoms: _137  and  _138
REMARK   60  A    between atoms: _137  and  _140
REMARK   61  A    between atoms: _140  and  _141
REMARK   62  A    between atoms: _144  and  _146
REMARK   63  A    between atoms: _146  and  _147
REMARK   64  A    between atoms: _146  and  _149
REMARK   65  A    between atoms: _149  and  _150
REMARK   66  A    between atoms: _152  and  _154
REMARK   67  A    between atoms: _154  and  _155
REMARK   68  A    between atoms: _157  and  _159
REMARK   69  A    between atoms: _159  and  _160
REMARK   70  A    between atoms: _162  and  _164
REMARK   71  A    between atoms: _164  and  _165
REMARK   72  A    between atoms: _164  and  _167
REMARK   73  A    between atoms: _167  and  _168
REMARK   74  A    between atoms: _171  and  _173
REMARK   75  A    between atoms: _173  and  _174
REMARK   76  A    between atoms: _173  and  _176
REMARK   77  A    between atoms: _179  and  _181
REMARK   78  A    between atoms: _181  and  _182
REMARK   79  A    between atoms: _181  and  _184
REMARK   80  A    between atoms: _184  and  _185
REMARK   81  A    between atoms: _187  and  _189
REMARK   82  A    between atoms: _189  and  _190
REMARK   83  A    between atoms: _189  and  _192
REMARK   84  A    between atoms: _192  and  _193
REMARK   85  A    between atoms: _203  and  _205
REMARK   86  A    between atoms: _205  and  _206
REMARK   87  A    between atoms: _208  and  _210
REMARK   88  A    between atoms: _210  and  _211
REMARK   89  A    between atoms: _210  and  _213
REMARK   90  A    between atoms: _213  and  _214
REMARK   91  A    between atoms: _214  and  _215
REMARK   92  A    between atoms: _218  and  _220
REMARK   93  A    between atoms: _220  and  _221
REMARK   94  A    between atoms: _223  and  _225
REMARK   95  A    between atoms: _225  and  _226
REMARK   96  A    between atoms: _225  and  _228
REMARK   97  A    between atoms: _228  and  _229
REMARK   98  A    between atoms: _230  and  _232
REMARK   99  A    between atoms: _232  and  _233
REMARK  100  A    between atoms: _232  and  _235
REMARK  101  A    between atoms: _235  and  _236
REMARK  102  A    between atoms: _239  and  _241
REMARK  103  A    between atoms: _241  and  _242
REMARK  104  A    between atoms: _241  and  _244
REMARK  105  A    between atoms: _244  and  _245
REMARK  106  A    between atoms: _245  and  _246
REMARK  107  A    between atoms: _246  and  _247
REMARK  108  A    between atoms: _256  and  _258
REMARK  109  A    between atoms: _258  and  _259
REMARK  110  A    between atoms: _258  and  _261
REMARK  111  A    between atoms: _261  and  _262
REMARK  112  A    between atoms: _262  and  _263
REMARK  113  A    between atoms: _263  and  _264
REMARK  114  A    between atoms: _264  and  _265
REMARK  115  A    between atoms: _269  and  _271
REMARK  116  A    between atoms: _271  and  _272
REMARK  117  A    between atoms: _271  and  _274
REMARK  118  A    between atoms: _274  and  _275
REMARK  119  A    between atoms: _280  and  _281
REMARK  120  A    between atoms: _283  and  _285
REMARK  121  A    between atoms: _285  and  _286
REMARK  122  A    between atoms: _288  and  _290
REMARK  123  A    between atoms: _290  and  _291
REMARK  124  A    between atoms: _290  and  _293
REMARK  125  A    between atoms: _293  and  _294
REMARK  126  A    between atoms: _300  and  _302
REMARK  127  A    between atoms: _302  and  _303
REMARK  128  A    between atoms: _302  and  _305
REMARK  129  A    between atoms: _305  and  _306
REMARK  130  A    between atoms: _311  and  _312
REMARK                            x       y       z     vdW  Elec       q    Type
REMARK                         _______ _______ _______ _____ _____    ______ ____
ROOT
ATOM      1  CA  ASP A   1      22.905  -4.648  23.330  0.00  0.00    +0.144 C 
ENDROOT
BRANCH   1   2
ATOM      2  N   ASP A   1      23.480  -4.232  24.636  0.00  0.00    -0.239 NA
ATOM      3  H   ASP A   1      22.876  -4.199  25.482  0.00  0.00    +0.142 HD
ENDBRANCH   1   2
BRANCH   1   4
ATOM      4  C   ASP A   1      22.336  -3.375  22.683  0.00  0.00    +0.225 C 
ATOM      5  O   ASP A   1      21.153  -3.121  22.720  0.00  0.00    -0.287 OA
ENDBRANCH   1   4
BRANCH   1   6
ATOM      6  CB  ASP A   1      21.804  -5.702  23.614  0.00  0.00    +0.139 C 
BRANCH   6   7
ATOM      7  CG  ASP A   1      21.264  -6.336  22.313  0.00  0.00    +0.367 C 
ATOM      8  OD2 ASP A   1      20.314  -7.098  22.425  0.00  0.00    -0.246 OA
ATOM      9  OD1 ASP A   1      21.828  -6.021  21.290  0.00  0.00    -0.246 OA
ENDBRANCH   6   7
ENDBRANCH   1   6
TORSDOF 4
REMARK  Name = ../refined-set-2016/1c5o/1c5o_pocket.pdb
REMARK  130 active torsions:
REMARK  status: ('A' for Active; 'I' for Inactive)
REMARK    1  A    between atoms: _1  and  _5
REMARK    2  A    between atoms: _5  and  _6
REMARK    3  A    between atoms: _5  and  _8
REMARK    4  A    between atoms: _8  and  _9
REMARK    5  A    between atoms: _12  and  _14
REMARK    6  A    between atoms: _14  and  _15
REMARK    7  A    between atoms: _14  and  _17
REMARK    8  A    between atoms: _20  and  _22
REMARK    9  A    between atoms: _22  and  _23
REMARK   10  A    between atoms: _22  and  _25
REMARK   11  A    between atoms: _25  and  _26
REMARK   12  A    between atoms: _31  and  _33
REMARK   13  A    between atoms: _33  and  _34
REMARK   14  A    between atoms: _33  and  _36
REMARK   15  A    between atoms: _36  and  _37
REMARK   16  A    between atoms: _40  and  _42
REMARK   17  A    between atoms: _42  and  _43
REMARK   18  A    between atoms: _42  and  _45
REMARK   19  A    between atoms: _45  and  _46
REMARK   20  A    between atoms: _49  and  _51
REMARK   21  A    between atoms: _51  and  _52
REMARK   22  A    between atoms: _51  and  _54
REMARK   23  A    between atoms: _57  and  _59
REMARK   24  A    between atoms: _59  and  _60
REMARK   25  A    between atoms: _59  and  _62
REMARK   26  A    between atoms: _62  and  _63
REMARK   27  A    between atoms: _68  and  _70
REMARK   28  A    between atoms: _70  and  _71
REMARK   29  A    between atoms: _70  and  _73
REMARK   30  A    between atoms: _73  and  _74
REMARK   31  A    between atoms: _74  and  _75
REMARK   32  A    between atoms: _78  and  _80
REMARK   33  A    between atoms: _80  and  _81
REMARK   34  A    between atoms: _80  and  _83
REMARK   35  A    between atoms: _83  and  _84
REMARK   36  A    between atoms: _87  and  _89
REMARK   37  A    between atoms: _89  and  _90
REMARK   38  A    between atoms: _93  and  _95
REMARK   39  A    between atoms: _95  and  _96
REMARK   40  A    between atoms: _98  and  _100
REMARK   41  A    between atoms: _100  and  _101
REMARK   42  A    between atoms: _100  and  _103
REMARK   43  A    between atoms: _103  and  _104
REMARK   44  A    between atoms: _107  and  _109
REMARK   45  A    between atoms: _109  and  _110
REMARK   46  A    between atoms: _113  and  _115
REMARK   47  A    between atoms: _115  and  _116
REMARK   48  A    between atoms: _115  and  _118
REMARK   49  A    between atoms: _118  and  _119
REMARK   50  A    between atoms: _119  and  _229
REMARK   51  A    between atoms: _120  and  _122
REMARK   52  A    between atoms: _122  and  _123
REMARK   53  A    between atoms: _122  and  _125
REMARK   54  A    between atoms: _125  and  _126
REMARK   55  A    between atoms: _126  and  _127
REMARK   56  A    between atoms: _130  and  _132
REMARK   57  A    between atoms: _132  and  _133
REMARK   58  A    between atoms: _135  and  _137
REMARK   59  A    between atoms: _137  and  _138
REMARK   60  A    between atoms: _137  and  _140
REMARK   61  A    between atoms: _140  and  _141
REMARK   62  A    between atoms: _144  and  _146
REMARK   63  A    between atoms: _146  and  _147
REMARK   64  A    between atoms: _146  and  _149
REMARK   65  A    between atoms: _149  and  _150
REMARK   66  A    between atoms: _152  and  _154
REMARK   67  A    between atoms: _154  and  _155
REMARK   68  A    between atoms: _157  and  _159
REMARK   69  A    between atoms: _159  and  _160
REMARK   70  A    between atoms: _162  and  _164
REMARK   71  A    between atoms: _164  and  _165
REMARK   72  A    between atoms: _164  and  _167
REMARK   73  A    between atoms: _167  and  _168
REMARK   74  A    between atoms: _171  and  _173
REMARK   75  A    between atoms: _173  and  _174
REMARK   76  A    between atoms: _173  and  _176
REMARK   77  A    between atoms: _179  and  _181
REMARK   78  A    between atoms: _181  and  _182
REMARK   79  A    between atoms: _181  and  _184
REMARK   80  A    between atoms: _184  and  _185
REMARK   81  A    between atoms: _187  and  _189
REMARK   82  A    between atoms: _189  and  _190
REMARK   83  A    between atoms: _189  and  _192
REMARK   84  A    between atoms: _192  and  _193
REMARK   85  A    between atoms: _203  and  _205
REMARK   86  A    between atoms: _205  and  _206
REMARK   87  A    between atoms: _208  and  _210
REMARK   88  A    between atoms: _210  and  _211
REMARK   89  A    between atoms: _210  and  _213
REMARK   90  A    between atoms: _213  and  _214
REMARK   91  A    between atoms: _214  and  _215
REMARK   92  A    between atoms: _218  and  _220
REMARK   93  A    between atoms: _220  and  _221
REMARK   94  A    between atoms: _223  and  _225
REMARK   95  A    between atoms: _225  and  _226
REMARK   96  A    between atoms: _225  and  _228
REMARK   97  A    between atoms: _228  and  _229
REMARK   98  A    between atoms: _230  and  _232
REMARK   99  A    between atoms: _232  and  _233
REMARK  100  A    between atoms: _232  and  _235
REMARK  101  A    between atoms: _235  and  _236
REMARK  102  A    between atoms: _239  and  _241
REMARK  103  A    between atoms: _241  and  _242
REMARK  104  A    between atoms: _241  and  _244
REMARK  105  A    between atoms: _244  and  _245
REMARK  106  A    between atoms: _245  and  _246
REMARK  107  A    between atoms: _246  and  _247
REMARK  108  A    between atoms: _256  and  _258
REMARK  109  A    between atoms: _258  and  _259
REMARK  110  A    between atoms: _258  and  _261
REMARK  111  A    between atoms: _261  and  _262
REMARK  112  A    between atoms: _262  and  _263
REMARK  113  A    between atoms: _263  and  _264
REMARK  114  A    between atoms: _264  and  _265
REMARK  115  A    between atoms: _269  and  _271
REMARK  116  A    between atoms: _271  and  _272
REMARK  117  A    between atoms: _271  and  _274
REMARK  118  A    between atoms: _274  and  _275
REMARK  119  A    between atoms: _280  and  _281
REMARK  120  A    between atoms: _283  and  _285
REMARK  121  A    between atoms: _285  and  _286
REMARK  122  A    between atoms: _288  and  _290
REMARK  123  A    between atoms: _290  and  _291
REMARK  124  A    between atoms: _290  and  _293
REMARK  125  A    between atoms: _293  and  _294
REMARK  126  A    between atoms: _300  and  _302
REMARK  127  A    between atoms: _302  and  _303
REMARK  128  A    between atoms: _302  and  _305
REMARK  129  A    between atoms: _305  and  _306
REMARK  130  A    between atoms: _311  and  _312
REMARK                            x       y       z     vdW  Elec       q    Type
REMARK                         _______ _______ _______ _____ _____    ______ ____
ROOT
ATOM      1  CA  VAL A   1       6.530  -2.049  22.755  0.00  0.00    +0.133 C 
ENDROOT
BRANCH   1   2
ATOM      2  CB  VAL A   1       7.036  -3.475  23.158  0.00  0.00    +0.023 C 
ATOM      3  CG2 VAL A   1       7.085  -3.614  24.686  0.00  0.00    +0.002 C 
ATOM      4  CG1 VAL A   1       8.422  -3.783  22.513  0.00  0.00    +0.002 C 
ENDBRANCH   1   2
BRANCH   1   5
ATOM      5  N   VAL A   1       5.547  -1.480  23.740  0.00  0.00    -0.239 NA
ATOM      6  H   VAL A   1       4.641  -1.967  23.895  0.00  0.00    +0.142 HD
ENDBRANCH   1   5
BRANCH   1   7
ATOM      7  C   VAL A   1       5.730  -2.198  21.432  0.00  0.00    +0.224 C 
ATOM      8  O   VAL A   1       4.524  -2.396  21.474  0.00  0.00    -0.287 OA
ENDBRANCH   1   7
TORSDOF 3
REMARK  Name = ../refined-set-2016/1c5o/1c5o_pocket.pdb
REMARK  130 active torsions:
REMARK  status: ('A' for Active; 'I' for Inactive)
REMARK    1  A    between atoms: _1  and  _5
REMARK    2  A    between atoms: _5  and  _6
REMARK    3  A    between atoms: _5  and  _8
REMARK    4  A    between atoms: _8  and  _9
REMARK    5  A    between atoms: _12  and  _14
REMARK    6  A    between atoms: _14  and  _15
REMARK    7  A    between atoms: _14  and  _17
REMARK    8  A    between atoms: _20  and  _22
REMARK    9  A    between atoms: _22  and  _23
REMARK   10  A    between atoms: _22  and  _25
REMARK   11  A    between atoms: _25  and  _26
REMARK   12  A    between atoms: _31  and  _33
REMARK   13  A    between atoms: _33  and  _34
REMARK   14  A    between atoms: _33  and  _36
REMARK   15  A    between atoms: _36  and  _37
REMARK   16  A    between atoms: _40  and  _42
REMARK   17  A    between atoms: _42  and  _43
REMARK   18  A    between atoms: _42  and  _45
REMARK   19  A    between atoms: _45  and  _46
REMARK   20  A    between atoms: _49  and  _51
REMARK   21  A    between atoms: _51  and  _52
REMARK   22  A    between atoms: _51  and  _54
REMARK   23  A    between atoms: _57  and  _59
REMARK   24  A    between atoms: _59  and  _60
REMARK   25  A    between atoms: _59  and  _62
REMARK   26  A    between atoms: _62  and  _63
REMARK   27  A    between atoms: _68  and  _70
REMARK   28  A    between atoms: _70  and  _71
REMARK   29  A    between atoms: _70  and  _73
REMARK   30  A    between atoms: _73  and  _74
REMARK   31  A    between atoms: _74  and  _75
REMARK   32  A    between atoms: _78  and  _80
REMARK   33  A    between atoms: _80  and  _81
REMARK   34  A    between atoms: _80  and  _83
REMARK   35  A    between atoms: _83  and  _84
REMARK   36  A    between atoms: _87  and  _89
REMARK   37  A    between atoms: _89  and  _90
REMARK   38  A    between atoms: _93  and  _95
REMARK   39  A    between atoms: _95  and  _96
REMARK   40  A    between atoms: _98  and  _100
REMARK   41  A    between atoms: _100  and  _101
REMARK   42  A    between atoms: _100  and  _103
REMARK   43  A    between atoms: _103  and  _104
REMARK   44  A    between atoms: _107  and  _109
REMARK   45  A    between atoms: _109  and  _110
REMARK   46  A    between atoms: _113  and  _115
REMARK   47  A    between atoms: _115  and  _116
REMARK   48  A    between atoms: _115  and  _118
REMARK   49  A    between atoms: _118  and  _119
REMARK   50  A    between atoms: _119  and  _229
REMARK   51  A    between atoms: _120  and  _122
REMARK   52  A    between atoms: _122  and  _123
REMARK   53  A    between atoms: _122  and  _125
REMARK   54  A    between atoms: _125  and  _126
REMARK   55  A    between atoms: _126  and  _127
REMARK   56  A    between atoms: _130  and  _132
REMARK   57  A    between atoms: _132  and  _133
REMARK   58  A    between atoms: _135  and  _137
REMARK   59  A    between atoms: _137  and  _138
REMARK   60  A    between atoms: _137  and  _140
REMARK   61  A    between atoms: _140  and  _141
REMARK   62  A    between atoms: _144  and  _146
REMARK   63  A    between atoms: _146  and  _147
REMARK   64  A    between atoms: _146  and  _149
REMARK   65  A    between atoms: _149  and  _150
REMARK   66  A    between atoms: _152  and  _154
REMARK   67  A    between atoms: _154  and  _155
REMARK   68  A    between atoms: _157  and  _159
REMARK   69  A    between atoms: _159  and  _160
REMARK   70  A    between atoms: _162  and  _164
REMARK   71  A    between atoms: _164  and  _165
REMARK   72  A    between atoms: _164  and  _167
REMARK   73  A    between atoms: _167  and  _168
REMARK   74  A    between atoms: _171  and  _173
REMARK   75  A    between atoms: _173  and  _174
REMARK   76  A    between atoms: _173  and  _176
REMARK   77  A    between atoms: _179  and  _181
REMARK   78  A    between atoms: _181  and  _182
REMARK   79  A    between atoms: _181  and  _184
REMARK   80  A    between atoms: _184  and  _185
REMARK   81  A    between atoms: _187  and  _189
REMARK   82  A    between atoms: _189  and  _190
REMARK   83  A    between atoms: _189  and  _192
REMARK   84  A    between atoms: _192  and  _193
REMARK   85  A    between atoms: _203  and  _205
REMARK   86  A    between atoms: _205  and  _206
REMARK   87  A    between atoms: _208  and  _210
REMARK   88  A    between atoms: _210  and  _211
REMARK   89  A    between atoms: _210  and  _213
REMARK   90  A    between atoms: _213  and  _214
REMARK   91  A    between atoms: _214  and  _215
REMARK   92  A    between atoms: _218  and  _220
REMARK   93  A    between atoms: _220  and  _221
REMARK   94  A    between atoms: _223  and  _225
REMARK   95  A    between atoms: _225  and  _226
REMARK   96  A    between atoms: _225  and  _228
REMARK   97  A    between atoms: _228  and  _229
REMARK   98  A    between atoms: _230  and  _232
REMARK   99  A    between atoms: _232  and  _233
REMARK  100  A    between atoms: _232  and  _235
REMARK  101  A    between atoms: _235  and  _236
REMARK  102  A    between atoms: _239  and  _241
REMARK  103  A    between atoms: _241  and  _242
REMARK  104  A    between atoms: _241  and  _244
REMARK  105  A    between atoms: _244  and  _245
REMARK  106  A    between atoms: _245  and  _246
REMARK  107  A    between atoms: _246  and  _247
REMARK  108  A    between atoms: _256  and  _258
REMARK  109  A    between atoms: _258  and  _259
REMARK  110  A    between atoms: _258  and  _261
REMARK  111  A    between atoms: _261  and  _262
REMARK  112  A    between atoms: _262  and  _263
REMARK  113  A    between atoms: _263  and  _264
REMARK  114  A    between atoms: _264  and  _265
REMARK  115  A    between atoms: _269  and  _271
REMARK  116  A    between atoms: _271  and  _272
REMARK  117  A    between atoms: _271  and  _274
REMARK  118  A    between atoms: _274  and  _275
REMARK  119  A    between atoms: _280  and  _281
REMARK  120  A    between atoms: _283  and  _285
REMARK  121  A    between atoms: _285  and  _286
REMARK  122  A    between atoms: _288  and  _290
REMARK  123  A    between atoms: _290  and  _291
REMARK  124  A    between atoms: _290  and  _293
REMARK  125  A    between atoms: _293  and  _294
REMARK  126  A    between atoms: _300  and  _302
REMARK  127  A    between atoms: _302  and  _303
REMARK  128  A    between atoms: _302  and  _305
REMARK  129  A    between atoms: _305  and  _306
REMARK  130  A    between atoms: _311  and  _312
REMARK                            x       y       z     vdW  Elec       q    Type
REMARK                         _______ _______ _______ _____ _____    ______ ____
ROOT
ATOM      1  CB  ASN A   1       6.332 -14.130  15.823  0.00  0.00    +0.110 C 
ENDROOT
BRANCH   1   2
ATOM      2  CG  ASN A   1       7.383 -14.646  14.861  0.00  0.00    +0.221 C 
ATOM      3  ND2 ASN A   1       8.400 -15.261  15.380  0.00  0.00    -0.329 N 
ATOM      4 HD21 ASN A   1       8.471 -15.370  16.412  0.00  0.00    +0.145 HD
ATOM      5 HD22 ASN A   1       9.145 -15.645  14.764  0.00  0.00    +0.145 HD
ATOM      6  OD1 ASN A   1       7.294 -14.515  13.652  0.00  0.00    -0.275 OA
ENDBRANCH   1   2
BRANCH   1   7
ATOM      7  CA  ASN A   1       5.698 -12.824  15.366  0.00  0.00    +0.142 C 
BRANCH   7   8
ATOM      8  N   ASN A   1       6.675 -11.712  15.293  0.00  0.00    -0.239 NA
ATOM      9  H   ASN A   1       7.664 -11.868  15.575  0.00  0.00    +0.142 HD
ENDBRANCH   7   8
BRANCH   7  10
ATOM     10  C   ASN A   1       4.608 -12.535  16.348  0.00  0.00    +0.225 C 
ATOM     11  O   ASN A   1       4.713 -11.635  17.169  0.00  0.00    -0.287 OA
ENDBRANCH   7  10
ENDBRANCH   1   7
TORSDOF 4
REMARK  Name = ../refined-set-2016/1c5o/1c5o_pocket.pdb
REMARK  130 active torsions:
REMARK  status: ('A' for Active; 'I' for Inactive)
REMARK    1  A    between atoms: _1  and  _5
REMARK    2  A    between atoms: _5  and  _6
REMARK    3  A    between atoms: _5  and  _8
REMARK    4  A    between atoms: _8  and  _9
REMARK    5  A    between atoms: _12  and  _14
REMARK    6  A    between atoms: _14  and  _15
REMARK    7  A    between atoms: _14  and  _17
REMARK    8  A    between atoms: _20  and  _22
REMARK    9  A    between atoms: _22  and  _23
REMARK   10  A    between atoms: _22  and  _25
REMARK   11  A    between atoms: _25  and  _26
REMARK   12  A    between atoms: _31  and  _33
REMARK   13  A    between atoms: _33  and  _34
REMARK   14  A    between atoms: _33  and  _36
REMARK   15  A    between atoms: _36  and  _37
REMARK   16  A    between atoms: _40  and  _42
REMARK   17  A    between atoms: _42  and  _43
REMARK   18  A    between atoms: _42  and  _45
REMARK   19  A    between atoms: _45  and  _46
REMARK   20  A    between atoms: _49  and  _51
REMARK   21  A    between atoms: _51  and  _52
REMARK   22  A    between atoms: _51  and  _54
REMARK   23  A    between atoms: _57  and  _59
REMARK   24  A    between atoms: _59  and  _60
REMARK   25  A    between atoms: _59  and  _62
REMARK   26  A    between atoms: _62  and  _63
REMARK   27  A    between atoms: _68  and  _70
REMARK   28  A    between atoms: _70  and  _71
REMARK   29  A    between atoms: _70  and  _73
REMARK   30  A    between atoms: _73  and  _74
REMARK   31  A    between atoms: _74  and  _75
REMARK   32  A    between atoms: _78  and  _80
REMARK   33  A    between atoms: _80  and  _81
REMARK   34  A    between atoms: _80  and  _83
REMARK   35  A    between atoms: _83  and  _84
REMARK   36  A    between atoms: _87  and  _89
REMARK   37  A    between atoms: _89  and  _90
REMARK   38  A    between atoms: _93  and  _95
REMARK   39  A    between atoms: _95  and  _96
REMARK   40  A    between atoms: _98  and  _100
REMARK   41  A    between atoms: _100  and  _101
REMARK   42  A    between atoms: _100  and  _103
REMARK   43  A    between atoms: _103  and  _104
REMARK   44  A    between atoms: _107  and  _109
REMARK   45  A    between atoms: _109  and  _110
REMARK   46  A    between atoms: _113  and  _115
REMARK   47  A    between atoms: _115  and  _116
REMARK   48  A    between atoms: _115  and  _118
REMARK   49  A    between atoms: _118  and  _119
REMARK   50  A    between atoms: _119  and  _229
REMARK   51  A    between atoms: _120  and  _122
REMARK   52  A    between atoms: _122  and  _123
REMARK   53  A    between atoms: _122  and  _125
REMARK   54  A    between atoms: _125  and  _126
REMARK   55  A    between atoms: _126  and  _127
REMARK   56  A    between atoms: _130  and  _132
REMARK   57  A    between atoms: _132  and  _133
REMARK   58  A    between atoms: _135  and  _137
REMARK   59  A    between atoms: _137  and  _138
REMARK   60  A    between atoms: _137  and  _140
REMARK   61  A    between atoms: _140  and  _141
REMARK   62  A    between atoms: _144  and  _146
REMARK   63  A    between atoms: _146  and  _147
REMARK   64  A    between atoms: _146  and  _149
REMARK   65  A    between atoms: _149  and  _150
REMARK   66  A    between atoms: _152  and  _154
REMARK   67  A    between atoms: _154  and  _155
REMARK   68  A    between atoms: _157  and  _159
REMARK   69  A    between atoms: _159  and  _160
REMARK   70  A    between atoms: _162  and  _164
REMARK   71  A    between atoms: _164  and  _165
REMARK   72  A    between atoms: _164  and  _167
REMARK   73  A    between atoms: _167  and  _168
REMARK   74  A    between atoms: _171  and  _173
REMARK   75  A    between atoms: _173  and  _174
REMARK   76  A    between atoms: _173  and  _176
REMARK   77  A    between atoms: _179  and  _181
REMARK   78  A    between atoms: _181  and  _182
REMARK   79  A    between atoms: _181  and  _184
REMARK   80  A    between atoms: _184  and  _185
REMARK   81  A    between atoms: _187  and  _189
REMARK   82  A    between atoms: _189  and  _190
REMARK   83  A    between atoms: _189  and  _192
REMARK   84  A    between atoms: _192  and  _193
REMARK   85  A    between atoms: _203  and  _205
REMARK   86  A    between atoms: _205  and  _206
REMARK   87  A    between atoms: _208  and  _210
REMARK   88  A    between atoms: _210  and  _211
REMARK   89  A    between atoms: _210  and  _213
REMARK   90  A    between atoms: _213  and  _214
REMARK   91  A    between atoms: _214  and  _215
REMARK   92  A    between atoms: _218  and  _220
REMARK   93  A    between atoms: _220  and  _221
REMARK   94  A    between atoms: _223  and  _225
REMARK   95  A    between atoms: _225  and  _226
REMARK   96  A    between atoms: _225  and  _228
REMARK   97  A    between atoms: _228  and  _229
REMARK   98  A    between atoms: _230  and  _232
REMARK   99  A    between atoms: _232  and  _233
REMARK  100  A    between atoms: _232  and  _235
REMARK  101  A    between atoms: _235  and  _236
REMARK  102  A    between atoms: _239  and  _241
REMARK  103  A    between atoms: _241  and  _242
REMARK  104  A    between atoms: _241  and  _244
REMARK  105  A    between atoms: _244  and  _245
REMARK  106  A    between atoms: _245  and  _246
REMARK  107  A    between atoms: _246  and  _247
REMARK  108  A    between atoms: _256  and  _258
REMARK  109  A    between atoms: _258  and  _259
REMARK  110  A    between atoms: _258  and  _261
REMARK  111  A    between atoms: _261  and  _262
REMARK  112  A    between atoms: _262  and  _263
REMARK  113  A    between atoms: _263  and  _264
REMARK  114  A    between atoms: _264  and  _265
REMARK  115  A    between atoms: _269  and  _271
REMARK  116  A    between atoms: _271  and  _272
REMARK  117  A    between atoms: _271  and  _274
REMARK  118  A    between atoms: _274  and  _275
REMARK  119  A    between atoms: _280  and  _281
REMARK  120  A    between atoms: _283  and  _285
REMARK  121  A    between atoms: _285  and  _286
REMARK  122  A    between atoms: _288  and  _290
REMARK  123  A    between atoms: _290  and  _291
REMARK  124  A    between atoms: _290  and  _293
REMARK  125  A    between atoms: _293  and  _294
REMARK  126  A    between atoms: _300  and  _302
REMARK  127  A    between atoms: _302  and  _303
REMARK  128  A    between atoms: _302  and  _305
REMARK  129  A    between atoms: _305  and  _306
REMARK  130  A    between atoms: _311  and  _312
REMARK                            x       y       z     vdW  Elec       q    Type
REMARK                         _______ _______ _______ _____ _____    ______ ____
ROOT
ATOM      1  CA  GLU A   1       6.337 -18.322  19.848  0.00  0.00    +0.134 C 
ENDROOT
BRANCH   1   2
ATOM      2  N   GLU A   1       4.926 -17.824  19.758  0.00  0.00    -0.239 NA
ATOM      3  H   GLU A   1       4.229 -18.121  20.471  0.00  0.00    +0.142 HD
ENDBRANCH   1   2
BRANCH   1   4
ATOM      4  C   GLU A   1       6.565 -19.212  18.640  0.00  0.00    +0.224 C 
ATOM      5  O   GLU A   1       7.624 -19.184  18.034  0.00  0.00    -0.287 OA
ENDBRANCH   1   4
BRANCH   1   6
ATOM      6  CB  GLU A   1       6.502 -19.104  21.158  0.00  0.00    +0.037 C 
BRANCH   6   7
ATOM      7  CG  GLU A   1       8.000 -19.211  21.552  0.00  0.00    +0.116 C 
BRANCH   7   8
ATOM      8  CD  GLU A   1       8.109 -19.960  22.900  0.00  0.00    +0.365 C 
ATOM      9  OE2 GLU A   1       7.347 -19.639  23.805  0.00  0.00    -0.246 OA
ATOM     10  OE1 GLU A   1       8.968 -20.822  22.947  0.00  0.00    -0.246 OA
ENDBRANCH   7   8
ENDBRANCH   6   7
ENDBRANCH   1   6
TORSDOF 5
REMARK  Name = ../refined-set-2016/1c5o/1c5o_pocket.pdb
REMARK  130 active torsions:
REMARK  status: ('A' for Active; 'I' for Inactive)
REMARK    1  A    between atoms: _1  and  _5
REMARK    2  A    between atoms: _5  and  _6
REMARK    3  A    between atoms: _5  and  _8
REMARK    4  A    between atoms: _8  and  _9
REMARK    5  A    between atoms: _12  and  _14
REMARK    6  A    between atoms: _14  and  _15
REMARK    7  A    between atoms: _14  and  _17
REMARK    8  A    between atoms: _20  and  _22
REMARK    9  A    between atoms: _22  and  _23
REMARK   10  A    between atoms: _22  and  _25
REMARK   11  A    between atoms: _25  and  _26
REMARK   12  A    between atoms: _31  and  _33
REMARK   13  A    between atoms: _33  and  _34
REMARK   14  A    between atoms: _33  and  _36
REMARK   15  A    between atoms: _36  and  _37
REMARK   16  A    between atoms: _40  and  _42
REMARK   17  A    between atoms: _42  and  _43
REMARK   18  A    between atoms: _42  and  _45
REMARK   19  A    between atoms: _45  and  _46
REMARK   20  A    between atoms: _49  and  _51
REMARK   21  A    between atoms: _51  and  _52
REMARK   22  A    between atoms: _51  and  _54
REMARK   23  A    between atoms: _57  and  _59
REMARK   24  A    between atoms: _59  and  _60
REMARK   25  A    between atoms: _59  and  _62
REMARK   26  A    between atoms: _62  and  _63
REMARK   27  A    between atoms: _68  and  _70
REMARK   28  A    between atoms: _70  and  _71
REMARK   29  A    between atoms: _70  and  _73
REMARK   30  A    between atoms: _73  and  _74
REMARK   31  A    between atoms: _74  and  _75
REMARK   32  A    between atoms: _78  and  _80
REMARK   33  A    between atoms: _80  and  _81
REMARK   34  A    between atoms: _80  and  _83
REMARK   35  A    between atoms: _83  and  _84
REMARK   36  A    between atoms: _87  and  _89
REMARK   37  A    between atoms: _89  and  _90
REMARK   38  A    between atoms: _93  and  _95
REMARK   39  A    between atoms: _95  and  _96
REMARK   40  A    between atoms: _98  and  _100
REMARK   41  A    between atoms: _100  and  _101
REMARK   42  A    between atoms: _100  and  _103
REMARK   43  A    between atoms: _103  and  _104
REMARK   44  A    between atoms: _107  and  _109
REMARK   45  A    between atoms: _109  and  _110
REMARK   46  A    between atoms: _113  and  _115
REMARK   47  A    between atoms: _115  and  _116
REMARK   48  A    between atoms: _115  and  _118
REMARK   49  A    between atoms: _118  and  _119
REMARK   50  A    between atoms: _119  and  _229
REMARK   51  A    between atoms: _120  and  _122
REMARK   52  A    between atoms: _122  and  _123
REMARK   53  A    between atoms: _122  and  _125
REMARK   54  A    between atoms: _125  and  _126
REMARK   55  A    between atoms: _126  and  _127
REMARK   56  A    between atoms: _130  and  _132
REMARK   57  A    between atoms: _132  and  _133
REMARK   58  A    between atoms: _135  and  _137
REMARK   59  A    between atoms: _137  and  _138
REMARK   60  A    between atoms: _137  and  _140
REMARK   61  A    between atoms: _140  and  _141
REMARK   62  A    between atoms: _144  and  _146
REMARK   63  A    between atoms: _146  and  _147
REMARK   64  A    between atoms: _146  and  _149
REMARK   65  A    between atoms: _149  and  _150
REMARK   66  A    between atoms: _152  and  _154
REMARK   67  A    between atoms: _154  and  _155
REMARK   68  A    between atoms: _157  and  _159
REMARK   69  A    between atoms: _159  and  _160
REMARK   70  A    between atoms: _162  and  _164
REMARK   71  A    between atoms: _164  and  _165
REMARK   72  A    between atoms: _164  and  _167
REMARK   73  A    between atoms: _167  and  _168
REMARK   74  A    between atoms: _171  and  _173
REMARK   75  A    between atoms: _173  and  _174
REMARK   76  A    between atoms: _173  and  _176
REMARK   77  A    between atoms: _179  and  _181
REMARK   78  A    between atoms: _181  and  _182
REMARK   79  A    between atoms: _181  and  _184
REMARK   80  A    between atoms: _184  and  _185
REMARK   81  A    between atoms: _187  and  _189
REMARK   82  A    between atoms: _189  and  _190
REMARK   83  A    between atoms: _189  and  _192
REMARK   84  A    between atoms: _192  and  _193
REMARK   85  A    between atoms: _203  and  _205
REMARK   86  A    between atoms: _205  and  _206
REMARK   87  A    between atoms: _208  and  _210
REMARK   88  A    between atoms: _210  and  _211
REMARK   89  A    between atoms: _210  and  _213
REMARK   90  A    between atoms: _213  and  _214
REMARK   91  A    between atoms: _214  and  _215
REMARK   92  A    between atoms: _218  and  _220
REMARK   93  A    between atoms: _220  and  _221
REMARK   94  A    between atoms: _223  and  _225
REMARK   95  A    between atoms: _225  and  _226
REMARK   96  A    between atoms: _225  and  _228
REMARK   97  A    between atoms: _228  and  _229
REMARK   98  A    between atoms: _230  and  _232
REMARK   99  A    between atoms: _232  and  _233
REMARK  100  A    between atoms: _232  and  _235
REMARK  101  A    between atoms: _235  and  _236
REMARK  102  A    between atoms: _239  and  _241
REMARK  103  A    between atoms: _241  and  _242
REMARK  104  A    between atoms: _241  and  _244
REMARK  105  A    between atoms: _244  and  _245
REMARK  106  A    between atoms: _245  and  _246
REMARK  107  A    between atoms: _246  and  _247
REMARK  108  A    between atoms: _256  and  _258
REMARK  109  A    between atoms: _258  and  _259
REMARK  110  A    between atoms: _258  and  _261
REMARK  111  A    between atoms: _261  and  _262
REMARK  112  A    between atoms: _262  and  _263
REMARK  113  A    between atoms: _263  and  _264
REMARK  114  A    between atoms: _264  and  _265
REMARK  115  A    between atoms: _269  and  _271
REMARK  116  A    between atoms: _271  and  _272
REMARK  117  A    between atoms: _271  and  _274
REMARK  118  A    between atoms: _274  and  _275
REMARK  119  A    between atoms: _280  and  _281
REMARK  120  A    between atoms: _283  and  _285
REMARK  121  A    between atoms: _285  and  _286
REMARK  122  A    between atoms: _288  and  _290
REMARK  123  A    between atoms: _290  and  _291
REMARK  124  A    between atoms: _290  and  _293
REMARK  125  A    between atoms: _293  and  _294
REMARK  126  A    between atoms: _300  and  _302
REMARK  127  A    between atoms: _302  and  _303
REMARK  128  A    between atoms: _302  and  _305
REMARK  129  A    between atoms: _305  and  _306
REMARK  130  A    between atoms: _311  and  _312
REMARK                            x       y       z     vdW  Elec       q    Type
REMARK                         _______ _______ _______ _____ _____    ______ ____
ROOT
ATOM      1  CA  LEU A   1       3.756  -4.051  29.697  0.00  0.00    +0.133 C 
ENDROOT
BRANCH   1   2
ATOM      2  N   LEU A   1       3.288  -3.132  28.651  0.00  0.00    -0.239 NA
ATOM      3  H   LEU A   1       3.927  -2.406  28.268  0.00  0.00    +0.142 HD
ENDBRANCH   1   2
BRANCH   1   4
ATOM      4  C   LEU A   1       4.292  -3.332  30.899  0.00  0.00    +0.224 C 
ATOM      5  O   LEU A   1       4.923  -2.307  30.763  0.00  0.00    -0.287 OA
ENDBRANCH   1   4
BRANCH   1   6
ATOM      6  CB  LEU A   1       4.875  -4.926  29.154  0.00  0.00    +0.025 C 
BRANCH   6   7
ATOM      7  CG  LEU A   1       4.436  -5.666  27.892  0.00  0.00    +0.002 C 
ATOM      8  CD2 LEU A   1       3.506  -6.768  28.255  0.00  0.00    +0.000 C 
ATOM      9  CD1 LEU A   1       5.656  -6.275  27.238  0.00  0.00    +0.000 C 
ENDBRANCH   6   7
ENDBRANCH   1   6
TORSDOF 4
REMARK  Name = ../refined-set-2016/1c5o/1c5o_pocket.pdb
REMARK  130 active torsions:
REMARK  status: ('A' for Active; 'I' for Inactive)
REMARK    1  A    between atoms: _1  and  _5
REMARK    2  A    between atoms: _5  and  _6
REMARK    3  A    between atoms: _5  and  _8
REMARK    4  A    between atoms: _8  and  _9
REMARK    5  A    between atoms: _12  and  _14
REMARK    6  A    between atoms: _14  and  _15
REMARK    7  A    between atoms: _14  and  _17
REMARK    8  A    between atoms: _20  and  _22
REMARK    9  A    between atoms: _22  and  _23
REMARK   10  A    between atoms: _22  and  _25
REMARK   11  A    between atoms: _25  and  _26
REMARK   12  A    between atoms: _31  and  _33
REMARK   13  A    between atoms: _33  and  _34
REMARK   14  A    between atoms: _33  and  _36
REMARK   15  A    between atoms: _36  and  _37
REMARK   16  A    between atoms: _40  and  _42
REMARK   17  A    between atoms: _42  and  _43
REMARK   18  A    between atoms: _42  and  _45
REMARK   19  A    between atoms: _45  and  _46
REMARK   20  A    between atoms: _49  and  _51
REMARK   21  A    between atoms: _51  and  _52
REMARK   22  A    between atoms: _51  and  _54
REMARK   23  A    between atoms: _57  and  _59
REMARK   24  A    between atoms: _59  and  _60
REMARK   25  A    between atoms: _59  and  _62
REMARK   26  A    between atoms: _62  and  _63
REMARK   27  A    between atoms: _68  and  _70
REMARK   28  A    between atoms: _70  and  _71
REMARK   29  A    between atoms: _70  and  _73
REMARK   30  A    between atoms: _73  and  _74
REMARK   31  A    between atoms: _74  and  _75
REMARK   32  A    between atoms: _78  and  _80
REMARK   33  A    between atoms: _80  and  _81
REMARK   34  A    between atoms: _80  and  _83
REMARK   35  A    between atoms: _83  and  _84
REMARK   36  A    between atoms: _87  and  _89
REMARK   37  A    between atoms: _89  and  _90
REMARK   38  A    between atoms: _93  and  _95
REMARK   39  A    between atoms: _95  and  _96
REMARK   40  A    between atoms: _98  and  _100
REMARK   41  A    between atoms: _100  and  _101
REMARK   42  A    between atoms: _100  and  _103
REMARK   43  A    between atoms: _103  and  _104
REMARK   44  A    between atoms: _107  and  _109
REMARK   45  A    between atoms: _109  and  _110
REMARK   46  A    between atoms: _113  and  _115
REMARK   47  A    between atoms: _115  and  _116
REMARK   48  A    between atoms: _115  and  _118
REMARK   49  A    between atoms: _118  and  _119
REMARK   50  A    between atoms: _119  and  _229
REMARK   51  A    between atoms: _120  and  _122
REMARK   52  A    between atoms: _122  and  _123
REMARK   53  A    between atoms: _122  and  _125
REMARK   54  A    between atoms: _125  and  _126
REMARK   55  A    between atoms: _126  and  _127
REMARK   56  A    between atoms: _130  and  _132
REMARK   57  A    between atoms: _132  and  _133
REMARK   58  A    between atoms: _135  and  _137
REMARK   59  A    between atoms: _137  and  _138
REMARK   60  A    between atoms: _137  and  _140
REMARK   61  A    between atoms: _140  and  _141
REMARK   62  A    between atoms: _144  and  _146
REMARK   63  A    between atoms: _146  and  _147
REMARK   64  A    between atoms: _146  and  _149
REMARK   65  A    between atoms: _149  and  _150
REMARK   66  A    between atoms: _152  and  _154
REMARK   67  A    between atoms: _154  and  _155
REMARK   68  A    between atoms: _157  and  _159
REMARK   69  A    between atoms: _159  and  _160
REMARK   70  A    between atoms: _162  and  _164
REMARK   71  A    between atoms: _164  and  _165
REMARK   72  A    between atoms: _164  and  _167
REMARK   73  A    between atoms: _167  and  _168
REMARK   74  A    between atoms: _171  and  _173
REMARK   75  A    between atoms: _173  and  _174
REMARK   76  A    between atoms: _173  and  _176
REMARK   77  A    between atoms: _179  and  _181
REMARK   78  A    between atoms: _181  and  _182
REMARK   79  A    between atoms: _181  and  _184
REMARK   80  A    between atoms: _184  and  _185
REMARK   81  A    between atoms: _187  and  _189
REMARK   82  A    between atoms: _189  and  _190
REMARK   83  A    between atoms: _189  and  _192
REMARK   84  A    between atoms: _192  and  _193
REMARK   85  A    between atoms: _203  and  _205
REMARK   86  A    between atoms: _205  and  _206
REMARK   87  A    between atoms: _208  and  _210
REMARK   88  A    between atoms: _210  and  _211
REMARK   89  A    between atoms: _210  and  _213
REMARK   90  A    between atoms: _213  and  _214
REMARK   91  A    between atoms: _214  and  _215
REMARK   92  A    between atoms: _218  and  _220
REMARK   93  A    between atoms: _220  and  _221
REMARK   94  A    between atoms: _223  and  _225
REMARK   95  A    between atoms: _225  and  _226
REMARK   96  A    between atoms: _225  and  _228
REMARK   97  A    between atoms: _228  and  _229
REMARK   98  A    between atoms: _230  and  _232
REMARK   99  A    between atoms: _232  and  _233
REMARK  100  A    between atoms: _232  and  _235
REMARK  101  A    between atoms: _235  and  _236
REMARK  102  A    between atoms: _239  and  _241
REMARK  103  A    between atoms: _241  and  _242
REMARK  104  A    between atoms: _241  and  _244
REMARK  105  A    between atoms: _244  and  _245
REMARK  106  A    between atoms: _245  and  _246
REMARK  107  A    between atoms: _246  and  _247
REMARK  108  A    between atoms: _256  and  _258
REMARK  109  A    between atoms: _258  and  _259
REMARK  110  A    between atoms: _258  and  _261
REMARK  111  A    between atoms: _261  and  _262
REMARK  112  A    between atoms: _262  and  _263
REMARK  113  A    between atoms: _263  and  _264
REMARK  114  A    between atoms: _264  and  _265
REMARK  115  A    between atoms: _269  and  _271
REMARK  116  A    between atoms: _271  and  _272
REMARK  117  A    between atoms: _271  and  _274
REMARK  118  A    between atoms: _274  and  _275
REMARK  119  A    between atoms: _280  and  _281
REMARK  120  A    between atoms: _283  and  _285
REMARK  121  A    between atoms: _285  and  _286
REMARK  122  A    between atoms: _288  and  _290
REMARK  123  A    between atoms: _290  and  _291
REMARK  124  A    between atoms: _290  and  _293
REMARK  125  A    between atoms: _293  and  _294
REMARK  126  A    between atoms: _300  and  _302
REMARK  127  A    between atoms: _302  and  _303
REMARK  128  A    between atoms: _302  and  _305
REMARK  129  A    between atoms: _305  and  _306
REMARK  130  A    between atoms: _311  and  _312
REMARK                            x       y       z     vdW  Elec       q    Type
REMARK                         _______ _______ _______ _____ _____    ______ ____
ROOT
ATOM      1  CA  ALA A   1       8.832  -6.090  31.842  0.00  0.00    +0.133 C 
ATOM      2  CB  ALA A   1       8.490  -4.975  30.881  0.00  0.00    +0.027 C 
ENDROOT
BRANCH   1   3
ATOM      3  N   ALA A   1      10.233  -6.520  31.691  0.00  0.00    -0.239 NA
ATOM      4  H   ALA A   1      10.505  -7.141  30.902  0.00  0.00    +0.142 HD
ENDBRANCH   1   3
BRANCH   1   5
ATOM      5  C   ALA A   1       7.971  -7.236  31.520  0.00  0.00    +0.224 C 
ATOM      6  O   ALA A   1       8.373  -8.088  30.743  0.00  0.00    -0.287 OA
ENDBRANCH   1   5
TORSDOF 2
REMARK  Name = ../refined-set-2016/1c5o/1c5o_pocket.pdb
REMARK  130 active torsions:
REMARK  status: ('A' for Active; 'I' for Inactive)
REMARK    1  A    between atoms: _1  and  _5
REMARK    2  A    between atoms: _5  and  _6
REMARK    3  A    between atoms: _5  and  _8
REMARK    4  A    between atoms: _8  and  _9
REMARK    5  A    between atoms: _12  and  _14
REMARK    6  A    between atoms: _14  and  _15
REMARK    7  A    between atoms: _14  and  _17
REMARK    8  A    between atoms: _20  and  _22
REMARK    9  A    between atoms: _22  and  _23
REMARK   10  A    between atoms: _22  and  _25
REMARK   11  A    between atoms: _25  and  _26
REMARK   12  A    between atoms: _31  and  _33
REMARK   13  A    between atoms: _33  and  _34
REMARK   14  A    between atoms: _33  and  _36
REMARK   15  A    between atoms: _36  and  _37
REMARK   16  A    between atoms: _40  and  _42
REMARK   17  A    between atoms: _42  and  _43
REMARK   18  A    between atoms: _42  and  _45
REMARK   19  A    between atoms: _45  and  _46
REMARK   20  A    between atoms: _49  and  _51
REMARK   21  A    between atoms: _51  and  _52
REMARK   22  A    between atoms: _51  and  _54
REMARK   23  A    between atoms: _57  and  _59
REMARK   24  A    between atoms: _59  and  _60
REMARK   25  A    between atoms: _59  and  _62
REMARK   26  A    between atoms: _62  and  _63
REMARK   27  A    between atoms: _68  and  _70
REMARK   28  A    between atoms: _70  and  _71
REMARK   29  A    between atoms: _70  and  _73
REMARK   30  A    between atoms: _73  and  _74
REMARK   31  A    between atoms: _74  and  _75
REMARK   32  A    between atoms: _78  and  _80
REMARK   33  A    between atoms: _80  and  _81
REMARK   34  A    between atoms: _80  and  _83
REMARK   35  A    between atoms: _83  and  _84
REMARK   36  A    between atoms: _87  and  _89
REMARK   37  A    between atoms: _89  and  _90
REMARK   38  A    between atoms: _93  and  _95
REMARK   39  A    between atoms: _95  and  _96
REMARK   40  A    between atoms: _98  and  _100
REMARK   41  A    between atoms: _100  and  _101
REMARK   42  A    between atoms: _100  and  _103
REMARK   43  A    between atoms: _103  and  _104
REMARK   44  A    between atoms: _107  and  _109
REMARK   45  A    between atoms: _109  and  _110
REMARK   46  A    between atoms: _113  and  _115
REMARK   47  A    between atoms: _115  and  _116
REMARK   48  A    between atoms: _115  and  _118
REMARK   49  A    between atoms: _118  and  _119
REMARK   50  A    between atoms: _119  and  _229
REMARK   51  A    between atoms: _120  and  _122
REMARK   52  A    between atoms: _122  and  _123
REMARK   53  A    between atoms: _122  and  _125
REMARK   54  A    between atoms: _125  and  _126
REMARK   55  A    between atoms: _126  and  _127
REMARK   56  A    between atoms: _130  and  _132
REMARK   57  A    between atoms: _132  and  _133
REMARK   58  A    between atoms: _135  and  _137
REMARK   59  A    between atoms: _137  and  _138
REMARK   60  A    between atoms: _137  and  _140
REMARK   61  A    between atoms: _140  and  _141
REMARK   62  A    between atoms: _144  and  _146
REMARK   63  A    between atoms: _146  and  _147
REMARK   64  A    between atoms: _146  and  _149
REMARK   65  A    between atoms: _149  and  _150
REMARK   66  A    between atoms: _152  and  _154
REMARK   67  A    between atoms: _154  and  _155
REMARK   68  A    between atoms: _157  and  _159
REMARK   69  A    between atoms: _159  and  _160
REMARK   70  A    between atoms: _162  and  _164
REMARK   71  A    between atoms: _164  and  _165
REMARK   72  A    between atoms: _164  and  _167
REMARK   73  A    between atoms: _167  and  _168
REMARK   74  A    between atoms: _171  and  _173
REMARK   75  A    between atoms: _173  and  _174
REMARK   76  A    between atoms: _173  and  _176
REMARK   77  A    between atoms: _179  and  _181
REMARK   78  A    between atoms: _181  and  _182
REMARK   79  A    between atoms: _181  and  _184
REMARK   80  A    between atoms: _184  and  _185
REMARK   81  A    between atoms: _187  and  _189
REMARK   82  A    between atoms: _189  and  _190
REMARK   83  A    between atoms: _189  and  _192
REMARK   84  A    between atoms: _192  and  _193
REMARK   85  A    between atoms: _203  and  _205
REMARK   86  A    between atoms: _205  and  _206
REMARK   87  A    between atoms: _208  and  _210
REMARK   88  A    between atoms: _210  and  _211
REMARK   89  A    between atoms: _210  and  _213
REMARK   90  A    between atoms: _213  and  _214
REMARK   91  A    between atoms: _214  and  _215
REMARK   92  A    between atoms: _218  and  _220
REMARK   93  A    between atoms: _220  and  _221
REMARK   94  A    between atoms: _223  and  _225
REMARK   95  A    between atoms: _225  and  _226
REMARK   96  A    between atoms: _225  and  _228
REMARK   97  A    between atoms: _228  and  _229
REMARK   98  A    between atoms: _230  and  _232
REMARK   99  A    between atoms: _232  and  _233
REMARK  100  A    between atoms: _232  and  _235
REMARK  101  A    between atoms: _235  and  _236
REMARK  102  A    between atoms: _239  and  _241
REMARK  103  A    between atoms: _241  and  _242
REMARK  104  A    between atoms: _241  and  _244
REMARK  105  A    between atoms: _244  and  _245
REMARK  106  A    between atoms: _245  and  _246
REMARK  107  A    between atoms: _246  and  _247
REMARK  108  A    between atoms: _256  and  _258
REMARK  109  A    between atoms: _258  and  _259
REMARK  110  A    between atoms: _258  and  _261
REMARK  111  A    between atoms: _261  and  _262
REMARK  112  A    between atoms: _262  and  _263
REMARK  113  A    between atoms: _263  and  _264
REMARK  114  A    between atoms: _264  and  _265
REMARK  115  A    between atoms: _269  and  _271
REMARK  116  A    between atoms: _271  and  _272
REMARK  117  A    between atoms: _271  and  _274
REMARK  118  A    between atoms: _274  and  _275
REMARK  119  A    between atoms: _280  and  _281
REMARK  120  A    between atoms: _283  and  _285
REMARK  121  A    between atoms: _285  and  _286
REMARK  122  A    between atoms: _288  and  _290
REMARK  123  A    between atoms: _290  and  _291
REMARK  124  A    between atoms: _290  and  _293
REMARK  125  A    between atoms: _293  and  _294
REMARK  126  A    between atoms: _300  and  _302
REMARK  127  A    between atoms: _302  and  _303
REMARK  128  A    between atoms: _302  and  _305
REMARK  129  A    between atoms: _305  and  _306
REMARK  130  A    between atoms: _311  and  _312
REMARK                            x       y       z     vdW  Elec       q    Type
REMARK                         _______ _______ _______ _____ _____    ______ ____
ROOT
ATOM      1  CA  SER A   8       7.455 -15.392  23.796  0.00  0.00    +0.160 C 
ENDROOT
BRANCH   1   2
ATOM      2  N   SER A   8       8.278 -16.593  24.004  0.00  0.00    -0.296 N 
ATOM      3  C   ASP A   7       9.555 -16.487  24.227  0.00  0.00    +0.243 C 
ATOM      4  O   ASP A   7      10.146 -15.418  24.288  0.00  0.00    -0.273 OA
ATOM      5  H   SER A   8       7.836 -17.534  23.973  0.00  0.00    +0.150 HD
BRANCH   3   6
ATOM      6  CA  ASP A   7      10.308 -17.794  24.431  0.00  0.00    +0.176 C 
BRANCH   6   7
ATOM      7  N   ASP A   7      11.668 -17.435  24.930  0.00  0.00    -0.295 N 
ATOM      8  C   GLY A   6      11.920 -17.390  26.207  0.00  0.00    +0.241 C 
ATOM      9  O   GLY A   6      11.078 -17.594  27.068  0.00  0.00    -0.273 OA
ATOM     10  H   ASP A   7      12.424 -17.218  24.249  0.00  0.00    +0.150 HD
BRANCH   8  11
ATOM     11  CA  GLY A   6      13.368 -17.011  26.564  0.00  0.00    +0.149 C 
BRANCH  11  12
ATOM     12  N   GLY A   6      13.297 -15.523  26.779  0.00  0.00    -0.297 N 
ATOM     13  H   GLY A   6      12.673 -15.146  27.521  0.00  0.00    +0.150 HD
ATOM     14  C   GLU A   5      13.995 -14.702  26.062  0.00  0.00    +0.243 C 
ATOM     15  O   GLU A   5      14.743 -15.046  25.171  0.00  0.00    -0.273 OA
BRANCH  14  16
ATOM     16  CA  GLU A   5      13.849 -13.230  26.369  0.00  0.00    +0.176 C 
BRANCH  16  17
ATOM     17  N   GLU A   5      14.850 -12.587  25.495  0.00  0.00    -0.295 N 
ATOM     18  C   TRP A   4      14.975 -11.297  25.427  0.00  0.00    +0.241 C 
ATOM     19  O   TRP A   4      14.284 -10.506  26.042  0.00  0.00    -0.273 OA
ATOM     20  H   GLU A   5      15.474 -13.186  24.917  0.00  0.00    +0.150 HD
BRANCH  18  21
ATOM     21  CA  TRP A   4      16.046 -10.843  24.489  0.00  0.00    +0.153 C 
BRANCH  21  22
ATOM     22  N   TRP A   4      16.186  -9.381  24.474  0.00  0.00    -0.297 N 
ATOM     23  H   TRP A   4      15.805  -8.801  25.249  0.00  0.00    +0.150 HD
ATOM     24  C   SER A   3      16.795  -8.832  23.474  0.00  0.00    +0.243 C 
ATOM     25  O   SER A   3      17.241  -9.470  22.541  0.00  0.00    -0.273 OA
BRANCH  24  26
ATOM     26  CA  SER A   3      16.931  -7.330  23.510  0.00  0.00    +0.178 C 
BRANCH  26  27
ATOM     27  N   SER A   3      15.625  -6.613  23.565  0.00  0.00    -0.295 N 
ATOM     28  H   SER A   3      15.029  -6.702  24.413  0.00  0.00    +0.150 HD
ATOM     29  C   VAL A   2      15.213  -5.872  22.565  0.00  0.00    +0.241 C 
ATOM     30  O   VAL A   2      15.812  -5.727  21.504  0.00  0.00    -0.273 OA
BRANCH  29  31
ATOM     31  CA  VAL A   2      13.878  -5.175  22.770  0.00  0.00    +0.148 C 
BRANCH  31  32
ATOM     32  N   VAL A   2      14.266  -3.736  22.600  0.00  0.00    -0.297 N 
ATOM     33  C   ILE A   1      14.851  -3.070  23.556  0.00  0.00    +0.238 C 
ATOM     34  O   ILE A   1      15.103  -3.586  24.629  0.00  0.00    -0.274 OA
ATOM     35  H   VAL A   2      14.064  -3.258  21.699  0.00  0.00    +0.150 HD
BRANCH  33  36
ATOM     36  CA  ILE A   1      15.243  -1.602  23.337  0.00  0.00    +0.145 C 
BRANCH  36  37
ATOM     37  N   ILE A   1      15.126  -1.000  24.705  0.00  0.00    -0.238 NA
ATOM     38  H   ILE A   1      15.661  -1.460  25.469  0.00  0.00    +0.142 HD
ENDBRANCH  36  37
BRANCH  36  39
ATOM     39  CB  ILE A   1      16.670  -1.566  22.844  0.00  0.00    +0.025 C 
ATOM     40  CG2 ILE A   1      16.737  -2.201  21.475  0.00  0.00    +0.002 C 
BRANCH  39  41
ATOM     41  CG1 ILE A   1      17.123  -0.140  22.766  0.00  0.00    +0.002 C 
ATOM     42  CD1 ILE A   1      18.588  -0.034  22.348  0.00  0.00    +0.000 C 
ENDBRANCH  39  41
ENDBRANCH  36  39
ENDBRANCH  33  36
ENDBRANCH  31  32
BRANCH  31  43
ATOM     43  CB  VAL A   2      12.845  -5.602  21.687  0.00  0.00    +0.027 C 
ATOM     44  CG2 VAL A   2      12.434  -7.083  21.883  0.00  0.00    +0.002 C 
ATOM     45  CG1 VAL A   2      11.588  -4.737  21.834  0.00  0.00    +0.002 C 
ENDBRANCH  31  43
ENDBRANCH  29  31
ENDBRANCH  26  27
BRANCH  26  46
ATOM     46  CB  SER A   3      17.696  -6.809  24.761  0.00  0.00    +0.166 C 
BRANCH  46  47
ATOM     47  OG  SER A   3      19.087  -7.058  24.655  0.00  0.00    -0.380 OA
ATOM     48  H   SER A   3      19.545  -6.716  25.463  0.00  0.00    +0.211 HD
ENDBRANCH  46  47
ENDBRANCH  26  46
ENDBRANCH  24  26
ENDBRANCH  21  22
BRANCH  21  49
ATOM     49  CB  TRP A   4      17.383 -11.498  24.894  0.00  0.00    +0.057 C 
BRANCH  49  50
ATOM     50  CG  TRP A   4      17.924 -11.096  26.280  0.00  0.00    -0.002 A 
ATOM     51  CD2 TRP A   4      17.750 -11.804  27.427  0.00  0.00    +0.013 A 
ATOM     52  CE2 TRP A   4      18.389 -11.155  28.468  0.00  0.00    +0.056 A 
ATOM     53  CZ2 TRP A   4      18.352 -11.694  29.740  0.00  0.00    +0.017 A 
ATOM     54  CH2 TRP A   4      17.687 -12.871  29.990  0.00  0.00    +0.001 A 
ATOM     55  CZ3 TRP A   4      17.047 -13.528  28.949  0.00  0.00    +0.000 A 
ATOM     56  NE1 TRP A   4      18.902 -10.095  27.851  0.00  0.00    -0.352 N 
ATOM     57  HE1 TRP A   4      19.460  -9.383  28.364  0.00  0.00    +0.166 HD
ATOM     58  CE3 TRP A   4      17.079 -12.990  27.675  0.00  0.00    +0.001 A 
ATOM     59  CD1 TRP A   4      18.668  -9.989  26.553  0.00  0.00    +0.068 A 
ENDBRANCH  49  50
ENDBRANCH  21  49
ENDBRANCH  18  21
ENDBRANCH  16  17
ENDBRANCH  14  16
ENDBRANCH  11  12
BRANCH  11  60
ATOM     60  CB  GLY A   6      13.843 -17.677  27.882  0.00  0.00    +0.041 C 
BRANCH  60  61
ATOM     61  CG  GLY A   6      15.253 -17.079  28.342  0.00  0.00    +0.116 C 
BRANCH  61  62
ATOM     62  CD  GLY A   6      15.510 -17.088  29.898  0.00  0.00    +0.365 C 
ATOM     63  OE2 GLY A   6      14.669 -16.596  30.643  0.00  0.00    -0.246 OA
ATOM     64  OE1 GLY A   6      16.562 -17.587  30.256  0.00  0.00    -0.246 OA
ENDBRANCH  61  62
ENDBRANCH  60  61
ENDBRANCH  11  60
ENDBRANCH   8  11
ENDBRANCH   6   7
ENDBRANCH   3   6
ENDBRANCH   1   2
BRANCH   1  65
ATOM     65  C   SER A   8       6.164 -15.556  24.611  0.00  0.00    +0.242 C 
ATOM     66  N   GLY A   9       6.053 -14.772  25.646  0.00  0.00    -0.297 N 
ATOM     67  H   GLY A   9       6.817 -14.104  25.873  0.00  0.00    +0.150 HD
ATOM     68  O   SER A   8       5.325 -16.386  24.306  0.00  0.00    -0.273 OA
BRANCH  66  69
ATOM     69  CA  GLY A   9       4.844 -14.827  26.502  0.00  0.00    +0.160 C 
BRANCH  69  70
ATOM     70  C   GLY A   9       4.772 -16.201  27.185  0.00  0.00    +0.241 C 
ATOM     71  N   GLY A  10       5.809 -16.525  27.901  0.00  0.00    -0.298 N 
ATOM     72  H   GLY A  10       6.614 -15.870  27.972  0.00  0.00    +0.150 HD
ATOM     73  O   GLY A   9       3.803 -16.925  27.064  0.00  0.00    -0.273 OA
BRANCH  71  74
ATOM     74  CA  GLY A  10       5.850 -17.835  28.623  0.00  0.00    +0.137 C 
BRANCH  74  75
ATOM     75  C   GLY A  10       5.375 -17.469  30.040  0.00  0.00    +0.227 C 
ATOM     76  O   GLY A  10       5.659 -16.362  30.458  0.00  0.00    -0.286 OA
ENDBRANCH  74  75
BRANCH  74  77
ATOM     77  CB  GLY A  10       7.286 -18.361  28.739  0.00  0.00    +0.031 C 
BRANCH  77  78
ATOM     78  CG  GLY A  10       7.882 -18.818  27.420  0.00  0.00    +0.045 C 
BRANCH  78  79
ATOM     79  CD  GLY A  10       7.784 -20.353  27.274  0.00  0.00    +0.174 C 
BRANCH  79  80
ATOM     80  NE  GLY A  10       8.701 -20.719  26.143  0.00  0.00    -0.265 N 
ATOM     81  CZ  GLY A  10       9.935 -21.097  26.360  0.00  0.00    +0.342 C 
ATOM     82  NH2 GLY A  10      10.486 -20.923  27.535  0.00  0.00    -0.292 N 
ATOM     83 HH21 GLY A  10       9.942 -20.482  28.304  0.00  0.00    +0.255 HD
ATOM     84 HH22 GLY A  10      11.467 -21.226  27.699  0.00  0.00    +0.255 HD
ATOM     85  NH1 GLY A  10      10.598 -21.640  25.375  0.00  0.00    -0.292 N 
ATOM     86 HH11 GLY A  10      11.580 -21.950  25.518  0.00  0.00    +0.255 HD
ATOM     87 HH12 GLY A  10      10.144 -21.762  24.447  0.00  0.00    +0.255 HD
ATOM     88  HE  GLY A  10       8.348 -20.671  25.166  0.00  0.00    +0.259 HD
ENDBRANCH  79  80
ENDBRANCH  78  79
ENDBRANCH  77  78
ENDBRANCH  74  77
ENDBRANCH  71  74
ENDBRANCH  69  70
BRANCH  69  89
ATOM     89  CB  GLY A   9       3.577 -14.557  25.595  0.00  0.00    +0.143 C 
BRANCH  89  90
ATOM     90  CG  GLY A   9       2.399 -14.007  26.412  0.00  0.00    +0.367 C 
ATOM     91  OD2 GLY A   9       2.635 -12.984  27.038  0.00  0.00    -0.246 OA
ATOM     92  OD1 GLY A   9       1.344 -14.625  26.361  0.00  0.00    -0.246 OA
ENDBRANCH  89  90
ENDBRANCH  69  89
ENDBRANCH  66  69
ENDBRANCH   1  65
BRANCH   1  93
ATOM     93  CB  SER A   8       7.189 -15.259  22.267  0.00  0.00    +0.098 C 
BRANCH  93  94
ATOM     94  SG  SER A   8       8.690 -15.114  21.253  0.00  0.00    -0.080 S 
BRANCH  94  95
ATOM     95  SG  TRP A   4       7.871 -14.403  19.563  0.00  0.00    -0.080 S 
BRANCH  95  96
ATOM     96  CB  TRP A   4       7.597 -12.656  19.867  0.00  0.00    +0.098 C 
BRANCH  96  97
ATOM     97  CA  TRP A   4       8.813 -11.920  20.325  0.00  0.00    +0.160 C 
BRANCH  97  98
ATOM     98  C   TRP A   4       9.774 -11.723  19.194  0.00  0.00    +0.242 C 
ATOM     99  O   TRP A   4      10.158 -10.595  18.919  0.00  0.00    -0.273 OA
ATOM    100  N   GLU A   5      10.111 -12.834  18.591  0.00  0.00    -0.297 N 
ATOM    101  H   GLU A   5       9.710 -13.732  18.928  0.00  0.00    +0.150 HD
BRANCH 100 102
ATOM    102  CA  GLU A   5      11.058 -12.851  17.430  0.00  0.00    +0.149 C 
BRANCH 102 103
ATOM    103  C   GLU A   5      10.551 -11.851  16.388  0.00  0.00    +0.241 C 
ATOM    104  O   GLU A   5       9.367 -11.791  16.121  0.00  0.00    -0.273 OA
ATOM    105  N   GLY A   6      11.420 -11.080  15.813  0.00  0.00    -0.295 N 
ATOM    106  H   GLY A   6      12.426 -11.156  16.067  0.00  0.00    +0.150 HD
BRANCH 105 107
ATOM    107  CA  GLY A   6      10.988 -10.084  14.790  0.00  0.00    +0.176 C 
BRANCH 107 108
ATOM    108  C   GLY A   6      10.833  -8.728  15.445  0.00  0.00    +0.243 C 
ATOM    109  N   ASP A   7      10.753  -8.685  16.751  0.00  0.00    -0.296 N 
ATOM    110  H   ASP A   7      10.798  -9.562  17.308  0.00  0.00    +0.150 HD
ATOM    111  O   GLY A   6      10.781  -7.730  14.757  0.00  0.00    -0.273 OA
BRANCH 109 112
ATOM    112  CA  ASP A   7      10.597  -7.364  17.435  0.00  0.00    +0.160 C 
BRANCH 112 113
ATOM    113  C   ASP A   7      11.930  -6.834  17.966  0.00  0.00    +0.241 C 
ATOM    114  O   ASP A   7      12.019  -5.658  18.266  0.00  0.00    -0.273 OA
ATOM    115  N   SER A   8      12.907  -7.683  18.092  0.00  0.00    -0.295 N 
ATOM    116  H   SER A   8      12.750  -8.680  17.842  0.00  0.00    +0.150 HD
BRANCH 115 117
ATOM    117  CA  SER A   8      14.248  -7.257  18.587  0.00  0.00    +0.178 C 
BRANCH 117 118
ATOM    118  C   SER A   8      14.675  -5.914  17.959  0.00  0.00    +0.243 C 
ATOM    119  N   GLY A   9      15.292  -5.083  18.737  0.00  0.00    -0.295 N 
ATOM    120  H   GLY A   9      15.463  -5.336  19.731  0.00  0.00    +0.150 HD
ATOM    121  O   SER A   8      14.417  -5.674  16.795  0.00  0.00    -0.273 OA
BRANCH 119 122
ATOM    122  CA  GLY A   9      15.753  -3.785  18.225  0.00  0.00    +0.176 C 
BRANCH 122 123
ATOM    123  C   GLY A   9      14.756  -2.721  18.323  0.00  0.00    +0.243 C 
ATOM    124  N   GLY A  10      13.538  -3.002  18.630  0.00  0.00    -0.296 N 
ATOM    125  H   GLY A  10      13.240  -3.979  18.827  0.00  0.00    +0.150 HD
ATOM    126  O   GLY A   9      15.105  -1.597  18.131  0.00  0.00    -0.273 OA
BRANCH 124 127
ATOM    127  CA  GLY A  10      12.570  -1.863  18.691  0.00  0.00    +0.163 C 
BRANCH 127 128
ATOM    128  C   GLY A  10      12.548  -1.152  19.996  0.00  0.00    +0.229 C 
ATOM    129  O   GLY A  10      13.260  -1.544  20.892  0.00  0.00    -0.286 OA
ENDBRANCH 127 128
ENDBRANCH 124 127
ENDBRANCH 122 123
ENDBRANCH 119 122
ENDBRANCH 117 118
BRANCH 117 130
ATOM    130  CB  SER A   8      15.268  -8.331  18.214  0.00  0.00    +0.166 C 
BRANCH 130 131
ATOM    131  OG  SER A   8      14.637  -9.585  18.524  0.00  0.00    -0.380 OA
ATOM    132  H   SER A   8      15.254 -10.327  18.302  0.00  0.00    +0.211 HD
ENDBRANCH 130 131
ENDBRANCH 117 130
ENDBRANCH 115 117
ENDBRANCH 112 113
BRANCH 112 133
ATOM    133  CB  ASP A   7       9.628  -7.488  18.594  0.00  0.00    +0.143 C 
BRANCH 133 134
ATOM    134  CG  ASP A   7       8.191  -7.846  18.147  0.00  0.00    +0.367 C 
ATOM    135  OD2 ASP A   7       7.579  -8.687  18.778  0.00  0.00    -0.246 OA
ATOM    136  OD1 ASP A   7       7.752  -7.245  17.187  0.00  0.00    -0.246 OA
ENDBRANCH 133 134
ENDBRANCH 112 133
ENDBRANCH 109 112
ENDBRANCH 107 108
ENDBRANCH 105 107
ENDBRANCH 102 103
BRANCH 102 137
ATOM    137  CB  GLU A   5      11.095 -14.286  16.814  0.00  0.00    +0.041 C 
BRANCH 137 138
ATOM    138  CG  GLU A   5      12.531 -14.898  16.889  0.00  0.00    +0.116 C 
BRANCH 138 139
ATOM    139  CD  GLU A   5      12.929 -15.451  15.508  0.00  0.00    +0.365 C 
ATOM    140  OE2 GLU A   5      13.050 -16.661  15.417  0.00  0.00    -0.246 OA
ATOM    141  OE1 GLU A   5      13.090 -14.627  14.621  0.00  0.00    -0.246 OA
ENDBRANCH 138 139
ENDBRANCH 137 138
ENDBRANCH 102 137
ENDBRANCH 100 102
ENDBRANCH  97  98
BRANCH  97 144
ATOM    142  C   SER A   3       7.954 -10.472  21.975  0.00  0.00    +0.241 C 
ATOM    143  O   SER A   3       7.849 -11.404  22.743  0.00  0.00    -0.273 OA
ATOM    144  N   TRP A   4       8.408 -10.596  20.783  0.00  0.00    -0.296 N 
ATOM    145  H   TRP A   4       8.486  -9.770  20.156  0.00  0.00    +0.150 HD
BRANCH 142 146
ATOM    146  CA  SER A   3       7.556  -9.108  22.388  0.00  0.00    +0.149 C 
ATOM    147  CB  SER A   3       8.795  -8.243  22.408  0.00  0.00    +0.031 C 
BRANCH 146 149
ATOM    148  C   VAL A   2       5.753  -9.446  23.957  0.00  0.00    +0.241 C 
ATOM    149  N   SER A   3       7.030  -9.382  23.742  0.00  0.00    -0.297 N 
ATOM    150  H   SER A   3       7.692  -9.525  24.531  0.00  0.00    +0.150 HD
ATOM    151  O   VAL A   2       4.933  -9.260  23.075  0.00  0.00    -0.273 OA
BRANCH 148 152
ATOM    152  CA  VAL A   2       5.323  -9.752  25.394  0.00  0.00    +0.160 C 
BRANCH 152 155
ATOM    153  C   ILE A   1       3.120  -9.996  26.418  0.00  0.00    +0.240 C 
ATOM    154  O   ILE A   1       3.521 -10.430  27.483  0.00  0.00    -0.274 OA
ATOM    155  N   VAL A   2       3.845  -9.665  25.392  0.00  0.00    -0.297 N 
ATOM    156  H   VAL A   2       3.367  -9.325  24.533  0.00  0.00    +0.150 HD
BRANCH 153 157
ATOM    157  CA  ILE A   1       1.669  -9.821  26.227  0.00  0.00    +0.169 C 
BRANCH 157 158
ATOM    158  N   ILE A   1       0.995 -10.739  27.153  0.00  0.00    -0.236 NA
ATOM    159  H   ILE A   1       1.179 -11.760  27.079  0.00  0.00    +0.142 HD
ENDBRANCH 157 158
ENDBRANCH 153 157
ENDBRANCH 152 155
BRANCH 152 160
ATOM    160  CB  VAL A   2       5.823 -11.184  25.798  0.00  0.00    +0.143 C 
BRANCH 160 161
ATOM    161  CG  VAL A   2       7.393 -11.246  25.957  0.00  0.00    +0.367 C 
ATOM    162  OD2 VAL A   2       8.013 -10.233  26.267  0.00  0.00    -0.246 OA
ATOM    163  OD1 VAL A   2       7.904 -12.336  25.765  0.00  0.00    -0.246 OA
ENDBRANCH 160 161
ENDBRANCH 152 160
ENDBRANCH 148 152
ENDBRANCH 146 149
ENDBRANCH 142 146
ENDBRANCH  97 144
ENDBRANCH  96  97
ENDBRANCH  95  96
ENDBRANCH  94  95
ENDBRANCH  93  94
ENDBRANCH   1  93
TORSDOF 70
REMARK  Name = ../refined-set-2016/1c5o/1c5o_pocket.pdb
REMARK  130 active torsions:
REMARK  status: ('A' for Active; 'I' for Inactive)
REMARK    1  A    between atoms: _1  and  _5
REMARK    2  A    between atoms: _5  and  _6
REMARK    3  A    between atoms: _5  and  _8
REMARK    4  A    between atoms: _8  and  _9
REMARK    5  A    between atoms: _12  and  _14
REMARK    6  A    between atoms: _14  and  _15
REMARK    7  A    between atoms: _14  and  _17
REMARK    8  A    between atoms: _20  and  _22
REMARK    9  A    between atoms: _22  and  _23
REMARK   10  A    between atoms: _22  and  _25
REMARK   11  A    between atoms: _25  and  _26
REMARK   12  A    between atoms: _31  and  _33
REMARK   13  A    between atoms: _33  and  _34
REMARK   14  A    between atoms: _33  and  _36
REMARK   15  A    between atoms: _36  and  _37
REMARK   16  A    between atoms: _40  and  _42
REMARK   17  A    between atoms: _42  and  _43
REMARK   18  A    between atoms: _42  and  _45
REMARK   19  A    between atoms: _45  and  _46
REMARK   20  A    between atoms: _49  and  _51
REMARK   21  A    between atoms: _51  and  _52
REMARK   22  A    between atoms: _51  and  _54
REMARK   23  A    between atoms: _57  and  _59
REMARK   24  A    between atoms: _59  and  _60
REMARK   25  A    between atoms: _59  and  _62
REMARK   26  A    between atoms: _62  and  _63
REMARK   27  A    between atoms: _68  and  _70
REMARK   28  A    between atoms: _70  and  _71
REMARK   29  A    between atoms: _70  and  _73
REMARK   30  A    between atoms: _73  and  _74
REMARK   31  A    between atoms: _74  and  _75
REMARK   32  A    between atoms: _78  and  _80
REMARK   33  A    between atoms: _80  and  _81
REMARK   34  A    between atoms: _80  and  _83
REMARK   35  A    between atoms: _83  and  _84
REMARK   36  A    between atoms: _87  and  _89
REMARK   37  A    between atoms: _89  and  _90
REMARK   38  A    between atoms: _93  and  _95
REMARK   39  A    between atoms: _95  and  _96
REMARK   40  A    between atoms: _98  and  _100
REMARK   41  A    between atoms: _100  and  _101
REMARK   42  A    between atoms: _100  and  _103
REMARK   43  A    between atoms: _103  and  _104
REMARK   44  A    between atoms: _107  and  _109
REMARK   45  A    between atoms: _109  and  _110
REMARK   46  A    between atoms: _113  and  _115
REMARK   47  A    between atoms: _115  and  _116
REMARK   48  A    between atoms: _115  and  _118
REMARK   49  A    between atoms: _118  and  _119
REMARK   50  A    between atoms: _119  and  _229
REMARK   51  A    between atoms: _120  and  _122
REMARK   52  A    between atoms: _122  and  _123
REMARK   53  A    between atoms: _122  and  _125
REMARK   54  A    between atoms: _125  and  _126
REMARK   55  A    between atoms: _126  and  _127
REMARK   56  A    between atoms: _130  and  _132
REMARK   57  A    between atoms: _132  and  _133
REMARK   58  A    between atoms: _135  and  _137
REMARK   59  A    between atoms: _137  and  _138
REMARK   60  A    between atoms: _137  and  _140
REMARK   61  A    between atoms: _140  and  _141
REMARK   62  A    between atoms: _144  and  _146
REMARK   63  A    between atoms: _146  and  _147
REMARK   64  A    between atoms: _146  and  _149
REMARK   65  A    between atoms: _149  and  _150
REMARK   66  A    between atoms: _152  and  _154
REMARK   67  A    between atoms: _154  and  _155
REMARK   68  A    between atoms: _157  and  _159
REMARK   69  A    between atoms: _159  and  _160
REMARK   70  A    between atoms: _162  and  _164
REMARK   71  A    between atoms: _164  and  _165
REMARK   72  A    between atoms: _164  and  _167
REMARK   73  A    between atoms: _167  and  _168
REMARK   74  A    between atoms: _171  and  _173
REMARK   75  A    between atoms: _173  and  _174
REMARK   76  A    between atoms: _173  and  _176
REMARK   77  A    between atoms: _179  and  _181
REMARK   78  A    between atoms: _181  and  _182
REMARK   79  A    between atoms: _181  and  _184
REMARK   80  A    between atoms: _184  and  _185
REMARK   81  A    between atoms: _187  and  _189
REMARK   82  A    between atoms: _189  and  _190
REMARK   83  A    between atoms: _189  and  _192
REMARK   84  A    between atoms: _192  and  _193
REMARK   85  A    between atoms: _203  and  _205
REMARK   86  A    between atoms: _205  and  _206
REMARK   87  A    between atoms: _208  and  _210
REMARK   88  A    between atoms: _210  and  _211
REMARK   89  A    between atoms: _210  and  _213
REMARK   90  A    between atoms: _213  and  _214
REMARK   91  A    between atoms: _214  and  _215
REMARK   92  A    between atoms: _218  and  _220
REMARK   93  A    between atoms: _220  and  _221
REMARK   94  A    between atoms: _223  and  _225
REMARK   95  A    between atoms: _225  and  _226
REMARK   96  A    between atoms: _225  and  _228
REMARK   97  A    between atoms: _228  and  _229
REMARK   98  A    between atoms: _230  and  _232
REMARK   99  A    between atoms: _232  and  _233
REMARK  100  A    between atoms: _232  and  _235
REMARK  101  A    between atoms: _235  and  _236
REMARK  102  A    between atoms: _239  and  _241
REMARK  103  A    between atoms: _241  and  _242
REMARK  104  A    between atoms: _241  and  _244
REMARK  105  A    between atoms: _244  and  _245
REMARK  106  A    between atoms: _245  and  _246
REMARK  107  A    between atoms: _246  and  _247
REMARK  108  A    between atoms: _256  and  _258
REMARK  109  A    between atoms: _258  and  _259
REMARK  110  A    between atoms: _258  and  _261
REMARK  111  A    between atoms: _261  and  _262
REMARK  112  A    between atoms: _262  and  _263
REMARK  113  A    between atoms: _263  and  _264
REMARK  114  A    between atoms: _264  and  _265
REMARK  115  A    between atoms: _269  and  _271
REMARK  116  A    between atoms: _271  and  _272
REMARK  117  A    between atoms: _271  and  _274
REMARK  118  A    between atoms: _274  and  _275
REMARK  119  A    between atoms: _280  and  _281
REMARK  120  A    between atoms: _283  and  _285
REMARK  121  A    between atoms: _285  and  _286
REMARK  122  A    between atoms: _288  and  _290
REMARK  123  A    between atoms: _290  and  _291
REMARK  124  A    between atoms: _290  and  _293
REMARK  125  A    between atoms: _293  and  _294
REMARK  126  A    between atoms: _300  and  _302
REMARK  127  A    between atoms: _302  and  _303
REMARK  128  A    between atoms: _302  and  _305
REMARK  129  A    between atoms: _305  and  _306
REMARK  130  A    between atoms: _311  and  _312
REMARK                            x       y       z     vdW  Elec       q    Type
REMARK                         _______ _______ _______ _____ _____    ______ ____
ROOT
ATOM      1  C   TYR A   2      10.675 -11.448  30.064  0.00  0.00    +0.241 C 
ATOM      2  O   TYR A   2      11.498 -12.250  29.627  0.00  0.00    -0.273 OA
ATOM      3  N   GLY A   3      10.515 -10.240  29.582  0.00  0.00    -0.295 N 
ATOM      4  H   GLY A   3       9.812  -9.600  30.002  0.00  0.00    +0.150 HD
ENDROOT
BRANCH   1   5
ATOM      5  CA  TYR A   2       9.757 -11.819  31.251  0.00  0.00    +0.153 C 
BRANCH   5   8
ATOM      6  C   LYS A   1       9.013 -14.046  31.902  0.00  0.00    +0.238 C 
ATOM      7  O   LYS A   1       7.838 -13.701  31.962  0.00  0.00    -0.274 OA
ATOM      8  N   TYR A   2      10.000 -13.254  31.575  0.00  0.00    -0.297 N 
ATOM      9  H   TYR A   2      10.969 -13.630  31.540  0.00  0.00    +0.150 HD
BRANCH   6  10
ATOM     10  CA  LYS A   1       9.377 -15.493  32.207  0.00  0.00    +0.145 C 
BRANCH  10  11
ATOM     11  N   LYS A   1       8.178 -16.087  32.883  0.00  0.00    -0.238 NA
ATOM     12  H   LYS A   1       7.259 -16.107  32.397  0.00  0.00    +0.142 HD
ENDBRANCH  10  11
BRANCH  10  13
ATOM     13  CB  LYS A   1       9.677 -16.215  30.883  0.00  0.00    +0.026 C 
BRANCH  13  14
ATOM     14  CG  LYS A   1      10.080 -17.705  31.104  0.00  0.00    -0.000 C 
BRANCH  14  15
ATOM     15  CD  LYS A   1      11.507 -17.756  31.749  0.00  0.00    -0.024 C 
BRANCH  15  16
ATOM     16  CE  LYS A   1      12.022 -19.200  31.838  0.00  0.00    -0.086 C 
BRANCH  16  17
ATOM     17  NZ  LYS A   1      13.466 -19.216  32.224  0.00  0.00    +0.380 N 
ATOM     18  HZ1 LYS A   1      13.581 -18.757  33.150  0.00  0.00    -0.089 HD
ATOM     19  HZ2 LYS A   1      13.798 -20.200  32.280  0.00  0.00    -0.089 HD
ATOM     20  HZ3 LYS A   1      14.020 -18.702  31.510  0.00  0.00    -0.089 HD
ENDBRANCH  16  17
ENDBRANCH  15  16
ENDBRANCH  14  15
ENDBRANCH  13  14
ENDBRANCH  10  13
ENDBRANCH   6  10
ENDBRANCH   5   8
BRANCH   5  21
ATOM     21  CB  TYR A   2      10.070 -10.933  32.522  0.00  0.00    +0.055 C 
BRANCH  21  22
ATOM     22  CG  TYR A   2       9.285 -11.455  33.699  0.00  0.00    -0.020 A 
ATOM     23  CD2 TYR A   2       9.851 -12.364  34.552  0.00  0.00    -0.001 A 
ATOM     24  CE2 TYR A   2       9.131 -12.851  35.611  0.00  0.00    +0.036 A 
ATOM     25  CZ  TYR A   2       7.849 -12.439  35.831  0.00  0.00    +0.134 A 
ATOM     26  CE1 TYR A   2       7.279 -11.527  34.975  0.00  0.00    +0.036 A 
ATOM     27  CD1 TYR A   2       8.004 -11.039  33.916  0.00  0.00    -0.001 A 
BRANCH  25  28
ATOM     28  OH  TYR A   2       7.142 -12.948  36.912  0.00  0.00    -0.506 OA
ATOM     29  HH  TYR A   2       6.236 -12.550  36.929  0.00  0.00    +0.292 HD
ENDBRANCH  25  28
ENDBRANCH  21  22
ENDBRANCH   5  21
ENDBRANCH   1   5
BRANCH   3  30
ATOM     30  CA  GLY A   3      11.350  -9.784  28.422  0.00  0.00    +0.176 C 
BRANCH  30  31
ATOM     31  C   GLY A   3      12.391  -8.842  28.932  0.00  0.00    +0.243 C 
ATOM     32  O   GLY A   3      12.102  -8.063  29.818  0.00  0.00    -0.273 OA
ATOM     33  N   PHE A   4      13.566  -8.890  28.374  0.00  0.00    -0.297 N 
ATOM     34  H   PHE A   4      13.763  -9.553  27.598  0.00  0.00    +0.150 HD
BRANCH  33  35
ATOM     35  CA  PHE A   4      14.608  -7.979  28.873  0.00  0.00    +0.153 C 
BRANCH  35  36
ATOM     36  C   PHE A   4      14.849  -6.983  27.820  0.00  0.00    +0.241 C 
ATOM     37  N   TYR A   5      15.154  -5.791  28.264  0.00  0.00    -0.298 N 
ATOM     38  H   TYR A   5      15.207  -5.620  29.289  0.00  0.00    +0.150 HD
ATOM     39  O   PHE A   4      14.756  -7.329  26.653  0.00  0.00    -0.273 OA
BRANCH  37  40
ATOM     40  CA  TYR A   5      15.425  -4.683  27.320  0.00  0.00    +0.141 C 
BRANCH  40  41
ATOM     41  C   TYR A   5      16.726  -3.985  27.684  0.00  0.00    +0.227 C 
ATOM     42  O   TYR A   5      17.063  -3.991  28.851  0.00  0.00    -0.286 OA
ENDBRANCH  40  41
BRANCH  40  43
ATOM     43  CB  TYR A   5      14.317  -3.715  27.411  0.00  0.00    +0.054 C 
BRANCH  43  44
ATOM     44  CG  TYR A   5      12.954  -4.353  27.138  0.00  0.00    -0.020 A 
ATOM     45  CD2 TYR A   5      12.341  -5.238  27.998  0.00  0.00    -0.001 A 
ATOM     46  CE2 TYR A   5      11.099  -5.762  27.700  0.00  0.00    +0.036 A 
ATOM     47  CZ  TYR A   5      10.460  -5.424  26.548  0.00  0.00    +0.134 A 
ATOM     48  CE1 TYR A   5      11.070  -4.557  25.715  0.00  0.00    +0.036 A 
ATOM     49  CD1 TYR A   5      12.299  -4.033  25.995  0.00  0.00    -0.001 A 
BRANCH  47  50
ATOM     50  OH  TYR A   5       9.223  -5.911  26.178  0.00  0.00    -0.506 OA
ATOM     51  HH  TYR A   5       8.892  -6.532  26.874  0.00  0.00    +0.292 HD
ENDBRANCH  47  50
ENDBRANCH  43  44
ENDBRANCH  40  43
ENDBRANCH  37  40
ENDBRANCH  35  36
BRANCH  35  52
ATOM     52  CB  PHE A   4      15.955  -8.735  29.181  0.00  0.00    +0.055 C 
BRANCH  52  53
ATOM     53  CG  PHE A   4      15.736  -9.600  30.432  0.00  0.00    -0.020 A 
ATOM     54  CD2 PHE A   4      16.055  -9.129  31.687  0.00  0.00    -0.004 A 
ATOM     55  CE2 PHE A   4      15.808  -9.881  32.810  0.00  0.00    -0.000 A 
ATOM     56  CZ  PHE A   4      15.233 -11.124  32.690  0.00  0.00    -0.000 A 
ATOM     57  CE1 PHE A   4      14.916 -11.602  31.453  0.00  0.00    -0.000 A 
ATOM     58  CD1 PHE A   4      15.168 -10.845  30.328  0.00  0.00    -0.004 A 
ENDBRANCH  52  53
ENDBRANCH  35  52
ENDBRANCH  33  35
ENDBRANCH  30  31
ENDBRANCH   3  30
TORSDOF 23
REMARK  Name = ../refined-set-2016/1c5o/1c5o_pocket.pdb
REMARK  130 active torsions:
REMARK  status: ('A' for Active; 'I' for Inactive)
REMARK    1  A    between atoms: _1  and  _5
REMARK    2  A    between atoms: _5  and  _6
REMARK    3  A    between atoms: _5  and  _8
REMARK    4  A    between atoms: _8  and  _9
REMARK    5  A    between atoms: _12  and  _14
REMARK    6  A    between atoms: _14  and  _15
REMARK    7  A    between atoms: _14  and  _17
REMARK    8  A    between atoms: _20  and  _22
REMARK    9  A    between atoms: _22  and  _23
REMARK   10  A    between atoms: _22  and  _25
REMARK   11  A    between atoms: _25  and  _26
REMARK   12  A    between atoms: _31  and  _33
REMARK   13  A    between atoms: _33  and  _34
REMARK   14  A    between atoms: _33  and  _36
REMARK   15  A    between atoms: _36  and  _37
REMARK   16  A    between atoms: _40  and  _42
REMARK   17  A    between atoms: _42  and  _43
REMARK   18  A    between atoms: _42  and  _45
REMARK   19  A    between atoms: _45  and  _46
REMARK   20  A    between atoms: _49  and  _51
REMARK   21  A    between atoms: _51  and  _52
REMARK   22  A    between atoms: _51  and  _54
REMARK   23  A    between atoms: _57  and  _59
REMARK   24  A    between atoms: _59  and  _60
REMARK   25  A    between atoms: _59  and  _62
REMARK   26  A    between atoms: _62  and  _63
REMARK   27  A    between atoms: _68  and  _70
REMARK   28  A    between atoms: _70  and  _71
REMARK   29  A    between atoms: _70  and  _73
REMARK   30  A    between atoms: _73  and  _74
REMARK   31  A    between atoms: _74  and  _75
REMARK   32  A    between atoms: _78  and  _80
REMARK   33  A    between atoms: _80  and  _81
REMARK   34  A    between atoms: _80  and  _83
REMARK   35  A    between atoms: _83  and  _84
REMARK   36  A    between atoms: _87  and  _89
REMARK   37  A    between atoms: _89  and  _90
REMARK   38  A    between atoms: _93  and  _95
REMARK   39  A    between atoms: _95  and  _96
REMARK   40  A    between atoms: _98  and  _100
REMARK   41  A    between atoms: _100  and  _101
REMARK   42  A    between atoms: _100  and  _103
REMARK   43  A    between atoms: _103  and  _104
REMARK   44  A    between atoms: _107  and  _109
REMARK   45  A    between atoms: _109  and  _110
REMARK   46  A    between atoms: _113  and  _115
REMARK   47  A    between atoms: _115  and  _116
REMARK   48  A    between atoms: _115  and  _118
REMARK   49  A    between atoms: _118  and  _119
REMARK   50  A    between atoms: _119  and  _229
REMARK   51  A    between atoms: _120  and  _122
REMARK   52  A    between atoms: _122  and  _123
REMARK   53  A    between atoms: _122  and  _125
REMARK   54  A    between atoms: _125  and  _126
REMARK   55  A    between atoms: _126  and  _127
REMARK   56  A    between atoms: _130  and  _132
REMARK   57  A    between atoms: _132  and  _133
REMARK   58  A    between atoms: _135  and  _137
REMARK   59  A    between atoms: _137  and  _138
REMARK   60  A    between atoms: _137  and  _140
REMARK   61  A    between atoms: _140  and  _141
REMARK   62  A    between atoms: _144  and  _146
REMARK   63  A    between atoms: _146  and  _147
REMARK   64  A    between atoms: _146  and  _149
REMARK   65  A    between atoms: _149  and  _150
REMARK   66  A    between atoms: _152  and  _154
REMARK   67  A    between atoms: _154  and  _155
REMARK   68  A    between atoms: _157  and  _159
REMARK   69  A    between atoms: _159  and  _160
REMARK   70  A    between atoms: _162  and  _164
REMARK   71  A    between atoms: _164  and  _165
REMARK   72  A    between atoms: _164  and  _167
REMARK   73  A    between atoms: _167  and  _168
REMARK   74  A    between atoms: _171  and  _173
REMARK   75  A    between atoms: _173  and  _174
REMARK   76  A    between atoms: _173  and  _176
REMARK   77  A    between atoms: _179  and  _181
REMARK   78  A    between atoms: _181  and  _182
REMARK   79  A    between atoms: _181  and  _184
REMARK   80  A    between atoms: _184  and  _185
REMARK   81  A    between atoms: _187  and  _189
REMARK   82  A    between atoms: _189  and  _190
REMARK   83  A    between atoms: _189  and  _192
REMARK   84  A    between atoms: _192  and  _193
REMARK   85  A    between atoms: _203  and  _205
REMARK   86  A    between atoms: _205  and  _206
REMARK   87  A    between atoms: _208  and  _210
REMARK   88  A    between atoms: _210  and  _211
REMARK   89  A    between atoms: _210  and  _213
REMARK   90  A    between atoms: _213  and  _214
REMARK   91  A    between atoms: _214  and  _215
REMARK   92  A    between atoms: _218  and  _220
REMARK   93  A    between atoms: _220  and  _221
REMARK   94  A    between atoms: _223  and  _225
REMARK   95  A    between atoms: _225  and  _226
REMARK   96  A    between atoms: _225  and  _228
REMARK   97  A    between atoms: _228  and  _229
REMARK   98  A    between atoms: _230  and  _232
REMARK   99  A    between atoms: _232  and  _233
REMARK  100  A    between atoms: _232  and  _235
REMARK  101  A    between atoms: _235  and  _236
REMARK  102  A    between atoms: _239  and  _241
REMARK  103  A    between atoms: _241  and  _242
REMARK  104  A    between atoms: _241  and  _244
REMARK  105  A    between atoms: _244  and  _245
REMARK  106  A    between atoms: _245  and  _246
REMARK  107  A    between atoms: _246  and  _247
REMARK  108  A    between atoms: _256  and  _258
REMARK  109  A    between atoms: _258  and  _259
REMARK  110  A    between atoms: _258  and  _261
REMARK  111  A    between atoms: _261  and  _262
REMARK  112  A    between atoms: _262  and  _263
REMARK  113  A    between atoms: _263  and  _264
REMARK  114  A    between atoms: _264  and  _265
REMARK  115  A    between atoms: _269  and  _271
REMARK  116  A    between atoms: _271  and  _272
REMARK  117  A    between atoms: _271  and  _274
REMARK  118  A    between atoms: _274  and  _275
REMARK  119  A    between atoms: _280  and  _281
REMARK  120  A    between atoms: _283  and  _285
REMARK  121  A    between atoms: _285  and  _286
REMARK  122  A    between atoms: _288  and  _290
REMARK  123  A    between atoms: _290  and  _291
REMARK  124  A    between atoms: _290  and  _293
REMARK  125  A    between atoms: _293  and  _294
REMARK  126  A    between atoms: _300  and  _302
REMARK  127  A    between atoms: _302  and  _303
REMARK  128  A    between atoms: _302  and  _305
REMARK  129  A    between atoms: _305  and  _306
REMARK  130  A    between atoms: _311  and  _312
REMARK                            x       y       z     vdW  Elec       q    Type
REMARK                         _______ _______ _______ _____ _____    ______ ____
ROOT
ATOM      1  O   HOH     1       8.465  -7.861  27.995  0.00  0.00    +0.000 OA
ENDROOT
TORSDOF 0
REMARK  Name = ../refined-set-2016/1c5o/1c5o_pocket.pdb
REMARK  130 active torsions:
REMARK  status: ('A' for Active; 'I' for Inactive)
REMARK    1  A    between atoms: _1  and  _5
REMARK    2  A    between atoms: _5  and  _6
REMARK    3  A    between atoms: _5  and  _8
REMARK    4  A    between atoms: _8  and  _9
REMARK    5  A    between atoms: _12  and  _14
REMARK    6  A    between atoms: _14  and  _15
REMARK    7  A    between atoms: _14  and  _17
REMARK    8  A    between atoms: _20  and  _22
REMARK    9  A    between atoms: _22  and  _23
REMARK   10  A    between atoms: _22  and  _25
REMARK   11  A    between atoms: _25  and  _26
REMARK   12  A    between atoms: _31  and  _33
REMARK   13  A    between atoms: _33  and  _34
REMARK   14  A    between atoms: _33  and  _36
REMARK   15  A    between atoms: _36  and  _37
REMARK   16  A    between atoms: _40  and  _42
REMARK   17  A    between atoms: _42  and  _43
REMARK   18  A    between atoms: _42  and  _45
REMARK   19  A    between atoms: _45  and  _46
REMARK   20  A    between atoms: _49  and  _51
REMARK   21  A    between atoms: _51  and  _52
REMARK   22  A    between atoms: _51  and  _54
REMARK   23  A    between atoms: _57  and  _59
REMARK   24  A    between atoms: _59  and  _60
REMARK   25  A    between atoms: _59  and  _62
REMARK   26  A    between atoms: _62  and  _63
REMARK   27  A    between atoms: _68  and  _70
REMARK   28  A    between atoms: _70  and  _71
REMARK   29  A    between atoms: _70  and  _73
REMARK   30  A    between atoms: _73  and  _74
REMARK   31  A    between atoms: _74  and  _75
REMARK   32  A    between atoms: _78  and  _80
REMARK   33  A    between atoms: _80  and  _81
REMARK   34  A    between atoms: _80  and  _83
REMARK   35  A    between atoms: _83  and  _84
REMARK   36  A    between atoms: _87  and  _89
REMARK   37  A    between atoms: _89  and  _90
REMARK   38  A    between atoms: _93  and  _95
REMARK   39  A    between atoms: _95  and  _96
REMARK   40  A    between atoms: _98  and  _100
REMARK   41  A    between atoms: _100  and  _101
REMARK   42  A    between atoms: _100  and  _103
REMARK   43  A    between atoms: _103  and  _104
REMARK   44  A    between atoms: _107  and  _109
REMARK   45  A    between atoms: _109  and  _110
REMARK   46  A    between atoms: _113  and  _115
REMARK   47  A    between atoms: _115  and  _116
REMARK   48  A    between atoms: _115  and  _118
REMARK   49  A    between atoms: _118  and  _119
REMARK   50  A    between atoms: _119  and  _229
REMARK   51  A    between atoms: _120  and  _122
REMARK   52  A    between atoms: _122  and  _123
REMARK   53  A    between atoms: _122  and  _125
REMARK   54  A    between atoms: _125  and  _126
REMARK   55  A    between atoms: _126  and  _127
REMARK   56  A    between atoms: _130  and  _132
REMARK   57  A    between atoms: _132  and  _133
REMARK   58  A    between atoms: _135  and  _137
REMARK   59  A    between atoms: _137  and  _138
REMARK   60  A    between atoms: _137  and  _140
REMARK   61  A    between atoms: _140  and  _141
REMARK   62  A    between atoms: _144  and  _146
REMARK   63  A    between atoms: _146  and  _147
REMARK   64  A    between atoms: _146  and  _149
REMARK   65  A    between atoms: _149  and  _150
REMARK   66  A    between atoms: _152  and  _154
REMARK   67  A    between atoms: _154  and  _155
REMARK   68  A    between atoms: _157  and  _159
REMARK   69  A    between atoms: _159  and  _160
REMARK   70  A    between atoms: _162  and  _164
REMARK   71  A    between atoms: _164  and  _165
REMARK   72  A    between atoms: _164  and  _167
REMARK   73  A    between atoms: _167  and  _168
REMARK   74  A    between atoms: _171  and  _173
REMARK   75  A    between atoms: _173  and  _174
REMARK   76  A    between atoms: _173  and  _176
REMARK   77  A    between atoms: _179  and  _181
REMARK   78  A    between atoms: _181  and  _182
REMARK   79  A    between atoms: _181  and  _184
REMARK   80  A    between atoms: _184  and  _185
REMARK   81  A    between atoms: _187  and  _189
REMARK   82  A    between atoms: _189  and  _190
REMARK   83  A    between atoms: _189  and  _192
REMARK   84  A    between atoms: _192  and  _193
REMARK   85  A    between atoms: _203  and  _205
REMARK   86  A    between atoms: _205  and  _206
REMARK   87  A    between atoms: _208  and  _210
REMARK   88  A    between atoms: _210  and  _211
REMARK   89  A    between atoms: _210  and  _213
REMARK   90  A    between atoms: _213  and  _214
REMARK   91  A    between atoms: _214  and  _215
REMARK   92  A    between atoms: _218  and  _220
REMARK   93  A    between atoms: _220  and  _221
REMARK   94  A    between atoms: _223  and  _225
REMARK   95  A    between atoms: _225  and  _226
REMARK   96  A    between atoms: _225  and  _228
REMARK   97  A    between atoms: _228  and  _229
REMARK   98  A    between atoms: _230  and  _232
REMARK   99  A    between atoms: _232  and  _233
REMARK  100  A    between atoms: _232  and  _235
REMARK  101  A    between atoms: _235  and  _236
REMARK  102  A    between atoms: _239  and  _241
REMARK  103  A    between atoms: _241  and  _242
REMARK  104  A    between atoms: _241  and  _244
REMARK  105  A    between atoms: _244  and  _245
REMARK  106  A    between atoms: _245  and  _246
REMARK  107  A    between atoms: _246  and  _247
REMARK  108  A    between atoms: _256  and  _258
REMARK  109  A    between atoms: _258  and  _259
REMARK  110  A    between atoms: _258  and  _261
REMARK  111  A    between atoms: _261  and  _262
REMARK  112  A    between atoms: _262  and  _263
REMARK  113  A    between atoms: _263  and  _264
REMARK  114  A    between atoms: _264  and  _265
REMARK  115  A    between atoms: _269  and  _271
REMARK  116  A    between atoms: _271  and  _272
REMARK  117  A    between atoms: _271  and  _274
REMARK  118  A    between atoms: _274  and  _275
REMARK  119  A    between atoms: _280  and  _281
REMARK  120  A    between atoms: _283  and  _285
REMARK  121  A    between atoms: _285  and  _286
REMARK  122  A    between atoms: _288  and  _290
REMARK  123  A    between atoms: _290  and  _291
REMARK  124  A    between atoms: _290  and  _293
REMARK  125  A    between atoms: _293  and  _294
REMARK  126  A    between atoms: _300  and  _302
REMARK  127  A    between atoms: _302  and  _303
REMARK  128  A    between atoms: _302  and  _305
REMARK  129  A    between atoms: _305  and  _306
REMARK  130  A    between atoms: _311  and  _312
REMARK                            x       y       z     vdW  Elec       q    Type
REMARK                         _______ _______ _______ _____ _____    ______ ____
ROOT
ATOM      1  O   HOH     1       8.694 -15.518  27.466  0.00  0.00    +0.000 OA
ENDROOT
TORSDOF 0
REMARK  Name = ../refined-set-2016/1c5o/1c5o_pocket.pdb
REMARK  130 active torsions:
REMARK  status: ('A' for Active; 'I' for Inactive)
REMARK    1  A    between atoms: _1  and  _5
REMARK    2  A    between atoms: _5  and  _6
REMARK    3  A    between atoms: _5  and  _8
REMARK    4  A    between atoms: _8  and  _9
REMARK    5  A    between atoms: _12  and  _14
REMARK    6  A    between atoms: _14  and  _15
REMARK    7  A    between atoms: _14  and  _17
REMARK    8  A    between atoms: _20  and  _22
REMARK    9  A    between atoms: _22  and  _23
REMARK   10  A    between atoms: _22  and  _25
REMARK   11  A    between atoms: _25  and  _26
REMARK   12  A    between atoms: _31  and  _33
REMARK   13  A    between atoms: _33  and  _34
REMARK   14  A    between atoms: _33  and  _36
REMARK   15  A    between atoms: _36  and  _37
REMARK   16  A    between atoms: _40  and  _42
REMARK   17  A    between atoms: _42  and  _43
REMARK   18  A    between atoms: _42  and  _45
REMARK   19  A    between atoms: _45  and  _46
REMARK   20  A    between atoms: _49  and  _51
REMARK   21  A    between atoms: _51  and  _52
REMARK   22  A    between atoms: _51  and  _54
REMARK   23  A    between atoms: _57  and  _59
REMARK   24  A    between atoms: _59  and  _60
REMARK   25  A    between atoms: _59  and  _62
REMARK   26  A    between atoms: _62  and  _63
REMARK   27  A    between atoms: _68  and  _70
REMARK   28  A    between atoms: _70  and  _71
REMARK   29  A    between atoms: _70  and  _73
REMARK   30  A    between atoms: _73  and  _74
REMARK   31  A    between atoms: _74  and  _75
REMARK   32  A    between atoms: _78  and  _80
REMARK   33  A    between atoms: _80  and  _81
REMARK   34  A    between atoms: _80  and  _83
REMARK   35  A    between atoms: _83  and  _84
REMARK   36  A    between atoms: _87  and  _89
REMARK   37  A    between atoms: _89  and  _90
REMARK   38  A    between atoms: _93  and  _95
REMARK   39  A    between atoms: _95  and  _96
REMARK   40  A    between atoms: _98  and  _100
REMARK   41  A    between atoms: _100  and  _101
REMARK   42  A    between atoms: _100  and  _103
REMARK   43  A    between atoms: _103  and  _104
REMARK   44  A    between atoms: _107  and  _109
REMARK   45  A    between atoms: _109  and  _110
REMARK   46  A    between atoms: _113  and  _115
REMARK   47  A    between atoms: _115  and  _116
REMARK   48  A    between atoms: _115  and  _118
REMARK   49  A    between atoms: _118  and  _119
REMARK   50  A    between atoms: _119  and  _229
REMARK   51  A    between atoms: _120  and  _122
REMARK   52  A    between atoms: _122  and  _123
REMARK   53  A    between atoms: _122  and  _125
REMARK   54  A    between atoms: _125  and  _126
REMARK   55  A    between atoms: _126  and  _127
REMARK   56  A    between atoms: _130  and  _132
REMARK   57  A    between atoms: _132  and  _133
REMARK   58  A    between atoms: _135  and  _137
REMARK   59  A    between atoms: _137  and  _138
REMARK   60  A    between atoms: _137  and  _140
REMARK   61  A    between atoms: _140  and  _141
REMARK   62  A    between atoms: _144  and  _146
REMARK   63  A    between atoms: _146  and  _147
REMARK   64  A    between atoms: _146  and  _149
REMARK   65  A    between atoms: _149  and  _150
REMARK   66  A    between atoms: _152  and  _154
REMARK   67  A    between atoms: _154  and  _155
REMARK   68  A    between atoms: _157  and  _159
REMARK   69  A    between atoms: _159  and  _160
REMARK   70  A    between atoms: _162  and  _164
REMARK   71  A    between atoms: _164  and  _165
REMARK   72  A    between atoms: _164  and  _167
REMARK   73  A    between atoms: _167  and  _168
REMARK   74  A    between atoms: _171  and  _173
REMARK   75  A    between atoms: _173  and  _174
REMARK   76  A    between atoms: _173  and  _176
REMARK   77  A    between atoms: _179  and  _181
REMARK   78  A    between atoms: _181  and  _182
REMARK   79  A    between atoms: _181  and  _184
REMARK   80  A    between atoms: _184  and  _185
REMARK   81  A    between atoms: _187  and  _189
REMARK   82  A    between atoms: _189  and  _190
REMARK   83  A    between atoms: _189  and  _192
REMARK   84  A    between atoms: _192  and  _193
REMARK   85  A    between atoms: _203  and  _205
REMARK   86  A    between atoms: _205  and  _206
REMARK   87  A    between atoms: _208  and  _210
REMARK   88  A    between atoms: _210  and  _211
REMARK   89  A    between atoms: _210  and  _213
REMARK   90  A    between atoms: _213  and  _214
REMARK   91  A    between atoms: _214  and  _215
REMARK   92  A    between atoms: _218  and  _220
REMARK   93  A    between atoms: _220  and  _221
REMARK   94  A    between atoms: _223  and  _225
REMARK   95  A    between atoms: _225  and  _226
REMARK   96  A    between atoms: _225  and  _228
REMARK   97  A    between atoms: _228  and  _229
REMARK   98  A    between atoms: _230  and  _232
REMARK   99  A    between atoms: _232  and  _233
REMARK  100  A    between atoms: _232  and  _235
REMARK  101  A    between atoms: _235  and  _236
REMARK  102  A    between atoms: _239  and  _241
REMARK  103  A    between atoms: _241  and  _242
REMARK  104  A    between atoms: _241  and  _244
REMARK  105  A    between atoms: _244  and  _245
REMARK  106  A    between atoms: _245  and  _246
REMARK  107  A    between atoms: _246  and  _247
REMARK  108  A    between atoms: _256  and  _258
REMARK  109  A    between atoms: _258  and  _259
REMARK  110  A    between atoms: _258  and  _261
REMARK  111  A    between atoms: _261  and  _262
REMARK  112  A    between atoms: _262  and  _263
REMARK  113  A    between atoms: _263  and  _264
REMARK  114  A    between atoms: _264  and  _265
REMARK  115  A    between atoms: _269  and  _271
REMARK  116  A    between atoms: _271  and  _272
REMARK  117  A    between atoms: _271  and  _274
REMARK  118  A    between atoms: _274  and  _275
REMARK  119  A    between atoms: _280  and  _281
REMARK  120  A    between atoms: _283  and  _285
REMARK  121  A    between atoms: _285  and  _286
REMARK  122  A    between atoms: _288  and  _290
REMARK  123  A    between atoms: _290  and  _291
REMARK  124  A    between atoms: _290  and  _293
REMARK  125  A    between atoms: _293  and  _294
REMARK  126  A    between atoms: _300  and  _302
REMARK  127  A    between atoms: _302  and  _303
REMARK  128  A    between atoms: _302  and  _305
REMARK  129  A    between atoms: _305  and  _306
REMARK  130  A    between atoms: _311  and  _312
REMARK                            x       y       z     vdW  Elec       q    Type
REMARK                         _______ _______ _______ _____ _____    ______ ____
ROOT
ATOM      1  O   HOH     1       6.304 -11.017  29.009  0.00  0.00    +0.000 OA
ENDROOT
TORSDOF 0
REMARK  Name = ../refined-set-2016/1c5o/1c5o_pocket.pdb
REMARK  130 active torsions:
REMARK  status: ('A' for Active; 'I' for Inactive)
REMARK    1  A    between atoms: _1  and  _5
REMARK    2  A    between atoms: _5  and  _6
REMARK    3  A    between atoms: _5  and  _8
REMARK    4  A    between atoms: _8  and  _9
REMARK    5  A    between atoms: _12  and  _14
REMARK    6  A    between atoms: _14  and  _15
REMARK    7  A    between atoms: _14  and  _17
REMARK    8  A    between atoms: _20  and  _22
REMARK    9  A    between atoms: _22  and  _23
REMARK   10  A    between atoms: _22  and  _25
REMARK   11  A    between atoms: _25  and  _26
REMARK   12  A    between atoms: _31  and  _33
REMARK   13  A    between atoms: _33  and  _34
REMARK   14  A    between atoms: _33  and  _36
REMARK   15  A    between atoms: _36  and  _37
REMARK   16  A    between atoms: _40  and  _42
REMARK   17  A    between atoms: _42  and  _43
REMARK   18  A    between atoms: _42  and  _45
REMARK   19  A    between atoms: _45  and  _46
REMARK   20  A    between atoms: _49  and  _51
REMARK   21  A    between atoms: _51  and  _52
REMARK   22  A    between atoms: _51  and  _54
REMARK   23  A    between atoms: _57  and  _59
REMARK   24  A    between atoms: _59  and  _60
REMARK   25  A    between atoms: _59  and  _62
REMARK   26  A    between atoms: _62  and  _63
REMARK   27  A    between atoms: _68  and  _70
REMARK   28  A    between atoms: _70  and  _71
REMARK   29  A    between atoms: _70  and  _73
REMARK   30  A    between atoms: _73  and  _74
REMARK   31  A    between atoms: _74  and  _75
REMARK   32  A    between atoms: _78  and  _80
REMARK   33  A    between atoms: _80  and  _81
REMARK   34  A    between atoms: _80  and  _83
REMARK   35  A    between atoms: _83  and  _84
REMARK   36  A    between atoms: _87  and  _89
REMARK   37  A    between atoms: _89  and  _90
REMARK   38  A    between atoms: _93  and  _95
REMARK   39  A    between atoms: _95  and  _96
REMARK   40  A    between atoms: _98  and  _100
REMARK   41  A    between atoms: _100  and  _101
REMARK   42  A    between atoms: _100  and  _103
REMARK   43  A    between atoms: _103  and  _104
REMARK   44  A    between atoms: _107  and  _109
REMARK   45  A    between atoms: _109  and  _110
REMARK   46  A    between atoms: _113  and  _115
REMARK   47  A    between atoms: _115  and  _116
REMARK   48  A    between atoms: _115  and  _118
REMARK   49  A    between atoms: _118  and  _119
REMARK   50  A    between atoms: _119  and  _229
REMARK   51  A    between atoms: _120  and  _122
REMARK   52  A    between atoms: _122  and  _123
REMARK   53  A    between atoms: _122  and  _125
REMARK   54  A    between atoms: _125  and  _126
REMARK   55  A    between atoms: _126  and  _127
REMARK   56  A    between atoms: _130  and  _132
REMARK   57  A    between atoms: _132  and  _133
REMARK   58  A    between atoms: _135  and  _137
REMARK   59  A    between atoms: _137  and  _138
REMARK   60  A    between atoms: _137  and  _140
REMARK   61  A    between atoms: _140  and  _141
REMARK   62  A    between atoms: _144  and  _146
REMARK   63  A    between atoms: _146  and  _147
REMARK   64  A    between atoms: _146  and  _149
REMARK   65  A    between atoms: _149  and  _150
REMARK   66  A    between atoms: _152  and  _154
REMARK   67  A    between atoms: _154  and  _155
REMARK   68  A    between atoms: _157  and  _159
REMARK   69  A    between atoms: _159  and  _160
REMARK   70  A    between atoms: _162  and  _164
REMARK   71  A    between atoms: _164  and  _165
REMARK   72  A    between atoms: _164  and  _167
REMARK   73  A    between atoms: _167  and  _168
REMARK   74  A    between atoms: _171  and  _173
REMARK   75  A    between atoms: _173  and  _174
REMARK   76  A    between atoms: _173  and  _176
REMARK   77  A    between atoms: _179  and  _181
REMARK   78  A    between atoms: _181  and  _182
REMARK   79  A    between atoms: _181  and  _184
REMARK   80  A    between atoms: _184  and  _185
REMARK   81  A    between atoms: _187  and  _189
REMARK   82  A    between atoms: _189  and  _190
REMARK   83  A    between atoms: _189  and  _192
REMARK   84  A    between atoms: _192  and  _193
REMARK   85  A    between atoms: _203  and  _205
REMARK   86  A    between atoms: _205  and  _206
REMARK   87  A    between atoms: _208  and  _210
REMARK   88  A    between atoms: _210  and  _211
REMARK   89  A    between atoms: _210  and  _213
REMARK   90  A    between atoms: _213  and  _214
REMARK   91  A    between atoms: _214  and  _215
REMARK   92  A    between atoms: _218  and  _220
REMARK   93  A    between atoms: _220  and  _221
REMARK   94  A    between atoms: _223  and  _225
REMARK   95  A    between atoms: _225  and  _226
REMARK   96  A    between atoms: _225  and  _228
REMARK   97  A    between atoms: _228  and  _229
REMARK   98  A    between atoms: _230  and  _232
REMARK   99  A    between atoms: _232  and  _233
REMARK  100  A    between atoms: _232  and  _235
REMARK  101  A    between atoms: _235  and  _236
REMARK  102  A    between atoms: _239  and  _241
REMARK  103  A    between atoms: _241  and  _242
REMARK  104  A    between atoms: _241  and  _244
REMARK  105  A    between atoms: _244  and  _245
REMARK  106  A    between atoms: _245  and  _246
REMARK  107  A    between atoms: _246  and  _247
REMARK  108  A    between atoms: _256  and  _258
REMARK  109  A    between atoms: _258  and  _259
REMARK  110  A    between atoms: _258  and  _261
REMARK  111  A    between atoms: _261  and  _262
REMARK  112  A    between atoms: _262  and  _263
REMARK  113  A    between atoms: _263  and  _264
REMARK  114  A    between atoms: _264  and  _265
REMARK  115  A    between atoms: _269  and  _271
REMARK  116  A    between atoms: _271  and  _272
REMARK  117  A    between atoms: _271  and  _274
REMARK  118  A    between atoms: _274  and  _275
REMARK  119  A    between atoms: _280  and  _281
REMARK  120  A    between atoms: _283  and  _285
REMARK  121  A    between atoms: _285  and  _286
REMARK  122  A    between atoms: _288  and  _290
REMARK  123  A    between atoms: _290  and  _291
REMARK  124  A    between atoms: _290  and  _293
REMARK  125  A    between atoms: _293  and  _294
REMARK  126  A    between atoms: _300  and  _302
REMARK  127  A    between atoms: _302  and  _303
REMARK  128  A    between atoms: _302  and  _305
REMARK  129  A    between atoms: _305  and  _306
REMARK  130  A    between atoms: _311  and  _312
REMARK                            x       y       z     vdW  Elec       q    Type
REMARK                         _______ _______ _______ _____ _____    ______ ____
ROOT
ATOM      1  O   HOH     1       7.118 -13.610  28.538  0.00  0.00    +0.000 OA
ENDROOT
TORSDOF 0
REMARK  Name = ../refined-set-2016/1c5o/1c5o_pocket.pdb
REMARK  130 active torsions:
REMARK  status: ('A' for Active; 'I' for Inactive)
REMARK    1  A    between atoms: _1  and  _5
REMARK    2  A    between atoms: _5  and  _6
REMARK    3  A    between atoms: _5  and  _8
REMARK    4  A    between atoms: _8  and  _9
REMARK    5  A    between atoms: _12  and  _14
REMARK    6  A    between atoms: _14  and  _15
REMARK    7  A    between atoms: _14  and  _17
REMARK    8  A    between atoms: _20  and  _22
REMARK    9  A    between atoms: _22  and  _23
REMARK   10  A    between atoms: _22  and  _25
REMARK   11  A    between atoms: _25  and  _26
REMARK   12  A    between atoms: _31  and  _33
REMARK   13  A    between atoms: _33  and  _34
REMARK   14  A    between atoms: _33  and  _36
REMARK   15  A    between atoms: _36  and  _37
REMARK   16  A    between atoms: _40  and  _42
REMARK   17  A    between atoms: _42  and  _43
REMARK   18  A    between atoms: _42  and  _45
REMARK   19  A    between atoms: _45  and  _46
REMARK   20  A    between atoms: _49  and  _51
REMARK   21  A    between atoms: _51  and  _52
REMARK   22  A    between atoms: _51  and  _54
REMARK   23  A    between atoms: _57  and  _59
REMARK   24  A    between atoms: _59  and  _60
REMARK   25  A    between atoms: _59  and  _62
REMARK   26  A    between atoms: _62  and  _63
REMARK   27  A    between atoms: _68  and  _70
REMARK   28  A    between atoms: _70  and  _71
REMARK   29  A    between atoms: _70  and  _73
REMARK   30  A    between atoms: _73  and  _74
REMARK   31  A    between atoms: _74  and  _75
REMARK   32  A    between atoms: _78  and  _80
REMARK   33  A    between atoms: _80  and  _81
REMARK   34  A    between atoms: _80  and  _83
REMARK   35  A    between atoms: _83  and  _84
REMARK   36  A    between atoms: _87  and  _89
REMARK   37  A    between atoms: _89  and  _90
REMARK   38  A    between atoms: _93  and  _95
REMARK   39  A    between atoms: _95  and  _96
REMARK   40  A    between atoms: _98  and  _100
REMARK   41  A    between atoms: _100  and  _101
REMARK   42  A    between atoms: _100  and  _103
REMARK   43  A    between atoms: _103  and  _104
REMARK   44  A    between atoms: _107  and  _109
REMARK   45  A    between atoms: _109  and  _110
REMARK   46  A    between atoms: _113  and  _115
REMARK   47  A    between atoms: _115  and  _116
REMARK   48  A    between atoms: _115  and  _118
REMARK   49  A    between atoms: _118  and  _119
REMARK   50  A    between atoms: _119  and  _229
REMARK   51  A    between atoms: _120  and  _122
REMARK   52  A    between atoms: _122  and  _123
REMARK   53  A    between atoms: _122  and  _125
REMARK   54  A    between atoms: _125  and  _126
REMARK   55  A    between atoms: _126  and  _127
REMARK   56  A    between atoms: _130  and  _132
REMARK   57  A    between atoms: _132  and  _133
REMARK   58  A    between atoms: _135  and  _137
REMARK   59  A    between atoms: _137  and  _138
REMARK   60  A    between atoms: _137  and  _140
REMARK   61  A    between atoms: _140  and  _141
REMARK   62  A    between atoms: _144  and  _146
REMARK   63  A    between atoms: _146  and  _147
REMARK   64  A    between atoms: _146  and  _149
REMARK   65  A    between atoms: _149  and  _150
REMARK   66  A    between atoms: _152  and  _154
REMARK   67  A    between atoms: _154  and  _155
REMARK   68  A    between atoms: _157  and  _159
REMARK   69  A    between atoms: _159  and  _160
REMARK   70  A    between atoms: _162  and  _164
REMARK   71  A    between atoms: _164  and  _165
REMARK   72  A    between atoms: _164  and  _167
REMARK   73  A    between atoms: _167  and  _168
REMARK   74  A    between atoms: _171  and  _173
REMARK   75  A    between atoms: _173  and  _174
REMARK   76  A    between atoms: _173  and  _176
REMARK   77  A    between atoms: _179  and  _181
REMARK   78  A    between atoms: _181  and  _182
REMARK   79  A    between atoms: _181  and  _184
REMARK   80  A    between atoms: _184  and  _185
REMARK   81  A    between atoms: _187  and  _189
REMARK   82  A    between atoms: _189  and  _190
REMARK   83  A    between atoms: _189  and  _192
REMARK   84  A    between atoms: _192  and  _193
REMARK   85  A    between atoms: _203  and  _205
REMARK   86  A    between atoms: _205  and  _206
REMARK   87  A    between atoms: _208  and  _210
REMARK   88  A    between atoms: _210  and  _211
REMARK   89  A    between atoms: _210  and  _213
REMARK   90  A    between atoms: _213  and  _214
REMARK   91  A    between atoms: _214  and  _215
REMARK   92  A    between atoms: _218  and  _220
REMARK   93  A    between atoms: _220  and  _221
REMARK   94  A    between atoms: _223  and  _225
REMARK   95  A    between atoms: _225  and  _226
REMARK   96  A    between atoms: _225  and  _228
REMARK   97  A    between atoms: _228  and  _229
REMARK   98  A    between atoms: _230  and  _232
REMARK   99  A    between atoms: _232  and  _233
REMARK  100  A    between atoms: _232  and  _235
REMARK  101  A    between atoms: _235  and  _236
REMARK  102  A    between atoms: _239  and  _241
REMARK  103  A    between atoms: _241  and  _242
REMARK  104  A    between atoms: _241  and  _244
REMARK  105  A    between atoms: _244  and  _245
REMARK  106  A    between atoms: _245  and  _246
REMARK  107  A    between atoms: _246  and  _247
REMARK  108  A    between atoms: _256  and  _258
REMARK  109  A    between atoms: _258  and  _259
REMARK  110  A    between atoms: _258  and  _261
REMARK  111  A    between atoms: _261  and  _262
REMARK  112  A    between atoms: _262  and  _263
REMARK  113  A    between atoms: _263  and  _264
REMARK  114  A    between atoms: _264  and  _265
REMARK  115  A    between atoms: _269  and  _271
REMARK  116  A    between atoms: _271  and  _272
REMARK  117  A    between atoms: _271  and  _274
REMARK  118  A    between atoms: _274  and  _275
REMARK  119  A    between atoms: _280  and  _281
REMARK  120  A    between atoms: _283  and  _285
REMARK  121  A    between atoms: _285  and  _286
REMARK  122  A    between atoms: _288  and  _290
REMARK  123  A    between atoms: _290  and  _291
REMARK  124  A    between atoms: _290  and  _293
REMARK  125  A    between atoms: _293  and  _294
REMARK  126  A    between atoms: _300  and  _302
REMARK  127  A    between atoms: _302  and  _303
REMARK  128  A    between atoms: _302  and  _305
REMARK  129  A    between atoms: _305  and  _306
REMARK  130  A    between atoms: _311  and  _312
REMARK                            x       y       z     vdW  Elec       q    Type
REMARK                         _______ _______ _______ _____ _____    ______ ____
ROOT
ATOM      1  O   HOH     1      19.689 -12.713  16.566  0.00  0.00    +0.000 OA
ENDROOT
TORSDOF 0
REMARK  Name = ../refined-set-2016/1c5o/1c5o_pocket.pdb
REMARK  130 active torsions:
REMARK  status: ('A' for Active; 'I' for Inactive)
REMARK    1  A    between atoms: _1  and  _5
REMARK    2  A    between atoms: _5  and  _6
REMARK    3  A    between atoms: _5  and  _8
REMARK    4  A    between atoms: _8  and  _9
REMARK    5  A    between atoms: _12  and  _14
REMARK    6  A    between atoms: _14  and  _15
REMARK    7  A    between atoms: _14  and  _17
REMARK    8  A    between atoms: _20  and  _22
REMARK    9  A    between atoms: _22  and  _23
REMARK   10  A    between atoms: _22  and  _25
REMARK   11  A    between atoms: _25  and  _26
REMARK   12  A    between atoms: _31  and  _33
REMARK   13  A    between atoms: _33  and  _34
REMARK   14  A    between atoms: _33  and  _36
REMARK   15  A    between atoms: _36  and  _37
REMARK   16  A    between atoms: _40  and  _42
REMARK   17  A    between atoms: _42  and  _43
REMARK   18  A    between atoms: _42  and  _45
REMARK   19  A    between atoms: _45  and  _46
REMARK   20  A    between atoms: _49  and  _51
REMARK   21  A    between atoms: _51  and  _52
REMARK   22  A    between atoms: _51  and  _54
REMARK   23  A    between atoms: _57  and  _59
REMARK   24  A    between atoms: _59  and  _60
REMARK   25  A    between atoms: _59  and  _62
REMARK   26  A    between atoms: _62  and  _63
REMARK   27  A    between atoms: _68  and  _70
REMARK   28  A    between atoms: _70  and  _71
REMARK   29  A    between atoms: _70  and  _73
REMARK   30  A    between atoms: _73  and  _74
REMARK   31  A    between atoms: _74  and  _75
REMARK   32  A    between atoms: _78  and  _80
REMARK   33  A    between atoms: _80  and  _81
REMARK   34  A    between atoms: _80  and  _83
REMARK   35  A    between atoms: _83  and  _84
REMARK   36  A    between atoms: _87  and  _89
REMARK   37  A    between atoms: _89  and  _90
REMARK   38  A    between atoms: _93  and  _95
REMARK   39  A    between atoms: _95  and  _96
REMARK   40  A    between atoms: _98  and  _100
REMARK   41  A    between atoms: _100  and  _101
REMARK   42  A    between atoms: _100  and  _103
REMARK   43  A    between atoms: _103  and  _104
REMARK   44  A    between atoms: _107  and  _109
REMARK   45  A    between atoms: _109  and  _110
REMARK   46  A    between atoms: _113  and  _115
REMARK   47  A    between atoms: _115  and  _116
REMARK   48  A    between atoms: _115  and  _118
REMARK   49  A    between atoms: _118  and  _119
REMARK   50  A    between atoms: _119  and  _229
REMARK   51  A    between atoms: _120  and  _122
REMARK   52  A    between atoms: _122  and  _123
REMARK   53  A    between atoms: _122  and  _125
REMARK   54  A    between atoms: _125  and  _126
REMARK   55  A    between atoms: _126  and  _127
REMARK   56  A    between atoms: _130  and  _132
REMARK   57  A    between atoms: _132  and  _133
REMARK   58  A    between atoms: _135  and  _137
REMARK   59  A    between atoms: _137  and  _138
REMARK   60  A    between atoms: _137  and  _140
REMARK   61  A    between atoms: _140  and  _141
REMARK   62  A    between atoms: _144  and  _146
REMARK   63  A    between atoms: _146  and  _147
REMARK   64  A    between atoms: _146  and  _149
REMARK   65  A    between atoms: _149  and  _150
REMARK   66  A    between atoms: _152  and  _154
REMARK   67  A    between atoms: _154  and  _155
REMARK   68  A    between atoms: _157  and  _159
REMARK   69  A    between atoms: _159  and  _160
REMARK   70  A    between atoms: _162  and  _164
REMARK   71  A    between atoms: _164  and  _165
REMARK   72  A    between atoms: _164  and  _167
REMARK   73  A    between atoms: _167  and  _168
REMARK   74  A    between atoms: _171  and  _173
REMARK   75  A    between atoms: _173  and  _174
REMARK   76  A    between atoms: _173  and  _176
REMARK   77  A    between atoms: _179  and  _181
REMARK   78  A    between atoms: _181  and  _182
REMARK   79  A    between atoms: _181  and  _184
REMARK   80  A    between atoms: _184  and  _185
REMARK   81  A    between atoms: _187  and  _189
REMARK   82  A    between atoms: _189  and  _190
REMARK   83  A    between atoms: _189  and  _192
REMARK   84  A    between atoms: _192  and  _193
REMARK   85  A    between atoms: _203  and  _205
REMARK   86  A    between atoms: _205  and  _206
REMARK   87  A    between atoms: _208  and  _210
REMARK   88  A    between atoms: _210  and  _211
REMARK   89  A    between atoms: _210  and  _213
REMARK   90  A    between atoms: _213  and  _214
REMARK   91  A    between atoms: _214  and  _215
REMARK   92  A    between atoms: _218  and  _220
REMARK   93  A    between atoms: _220  and  _221
REMARK   94  A    between atoms: _223  and  _225
REMARK   95  A    between atoms: _225  and  _226
REMARK   96  A    between atoms: _225  and  _228
REMARK   97  A    between atoms: _228  and  _229
REMARK   98  A    between atoms: _230  and  _232
REMARK   99  A    between atoms: _232  and  _233
REMARK  100  A    between atoms: _232  and  _235
REMARK  101  A    between atoms: _235  and  _236
REMARK  102  A    between atoms: _239  and  _241
REMARK  103  A    between atoms: _241  and  _242
REMARK  104  A    between atoms: _241  and  _244
REMARK  105  A    between atoms: _244  and  _245
REMARK  106  A    between atoms: _245  and  _246
REMARK  107  A    between atoms: _246  and  _247
REMARK  108  A    between atoms: _256  and  _258
REMARK  109  A    between atoms: _258  and  _259
REMARK  110  A    between atoms: _258  and  _261
REMARK  111  A    between atoms: _261  and  _262
REMARK  112  A    between atoms: _262  and  _263
REMARK  113  A    between atoms: _263  and  _264
REMARK  114  A    between atoms: _264  and  _265
REMARK  115  A    between atoms: _269  and  _271
REMARK  116  A    between atoms: _271  and  _272
REMARK  117  A    between atoms: _271  and  _274
REMARK  118  A    between atoms: _274  and  _275
REMARK  119  A    between atoms: _280  and  _281
REMARK  120  A    between atoms: _283  and  _285
REMARK  121  A    between atoms: _285  and  _286
REMARK  122  A    between atoms: _288  and  _290
REMARK  123  A    between atoms: _290  and  _291
REMARK  124  A    between atoms: _290  and  _293
REMARK  125  A    between atoms: _293  and  _294
REMARK  126  A    between atoms: _300  and  _302
REMARK  127  A    between atoms: _302  and  _303
REMARK  128  A    between atoms: _302  and  _305
REMARK  129  A    between atoms: _305  and  _306
REMARK  130  A    between atoms: _311  and  _312
REMARK                            x       y       z     vdW  Elec       q    Type
REMARK                         _______ _______ _______ _____ _____    ______ ____
ROOT
ATOM      1  O   HOH     1      19.918 -13.470  19.771  0.00  0.00    +0.000 OA
ENDROOT
TORSDOF 0
REMARK  Name = ../refined-set-2016/1c5o/1c5o_pocket.pdb
REMARK  130 active torsions:
REMARK  status: ('A' for Active; 'I' for Inactive)
REMARK    1  A    between atoms: _1  and  _5
REMARK    2  A    between atoms: _5  and  _6
REMARK    3  A    between atoms: _5  and  _8
REMARK    4  A    between atoms: _8  and  _9
REMARK    5  A    between atoms: _12  and  _14
REMARK    6  A    between atoms: _14  and  _15
REMARK    7  A    between atoms: _14  and  _17
REMARK    8  A    between atoms: _20  and  _22
REMARK    9  A    between atoms: _22  and  _23
REMARK   10  A    between atoms: _22  and  _25
REMARK   11  A    between atoms: _25  and  _26
REMARK   12  A    between atoms: _31  and  _33
REMARK   13  A    between atoms: _33  and  _34
REMARK   14  A    between atoms: _33  and  _36
REMARK   15  A    between atoms: _36  and  _37
REMARK   16  A    between atoms: _40  and  _42
REMARK   17  A    between atoms: _42  and  _43
REMARK   18  A    between atoms: _42  and  _45
REMARK   19  A    between atoms: _45  and  _46
REMARK   20  A    between atoms: _49  and  _51
REMARK   21  A    between atoms: _51  and  _52
REMARK   22  A    between atoms: _51  and  _54
REMARK   23  A    between atoms: _57  and  _59
REMARK   24  A    between atoms: _59  and  _60
REMARK   25  A    between atoms: _59  and  _62
REMARK   26  A    between atoms: _62  and  _63
REMARK   27  A    between atoms: _68  and  _70
REMARK   28  A    between atoms: _70  and  _71
REMARK   29  A    between atoms: _70  and  _73
REMARK   30  A    between atoms: _73  and  _74
REMARK   31  A    between atoms: _74  and  _75
REMARK   32  A    between atoms: _78  and  _80
REMARK   33  A    between atoms: _80  and  _81
REMARK   34  A    between atoms: _80  and  _83
REMARK   35  A    between atoms: _83  and  _84
REMARK   36  A    between atoms: _87  and  _89
REMARK   37  A    between atoms: _89  and  _90
REMARK   38  A    between atoms: _93  and  _95
REMARK   39  A    between atoms: _95  and  _96
REMARK   40  A    between atoms: _98  and  _100
REMARK   41  A    between atoms: _100  and  _101
REMARK   42  A    between atoms: _100  and  _103
REMARK   43  A    between atoms: _103  and  _104
REMARK   44  A    between atoms: _107  and  _109
REMARK   45  A    between atoms: _109  and  _110
REMARK   46  A    between atoms: _113  and  _115
REMARK   47  A    between atoms: _115  and  _116
REMARK   48  A    between atoms: _115  and  _118
REMARK   49  A    between atoms: _118  and  _119
REMARK   50  A    between atoms: _119  and  _229
REMARK   51  A    between atoms: _120  and  _122
REMARK   52  A    between atoms: _122  and  _123
REMARK   53  A    between atoms: _122  and  _125
REMARK   54  A    between atoms: _125  and  _126
REMARK   55  A    between atoms: _126  and  _127
REMARK   56  A    between atoms: _130  and  _132
REMARK   57  A    between atoms: _132  and  _133
REMARK   58  A    between atoms: _135  and  _137
REMARK   59  A    between atoms: _137  and  _138
REMARK   60  A    between atoms: _137  and  _140
REMARK   61  A    between atoms: _140  and  _141
REMARK   62  A    between atoms: _144  and  _146
REMARK   63  A    between atoms: _146  and  _147
REMARK   64  A    between atoms: _146  and  _149
REMARK   65  A    between atoms: _149  and  _150
REMARK   66  A    between atoms: _152  and  _154
REMARK   67  A    between atoms: _154  and  _155
REMARK   68  A    between atoms: _157  and  _159
REMARK   69  A    between atoms: _159  and  _160
REMARK   70  A    between atoms: _162  and  _164
REMARK   71  A    between atoms: _164  and  _165
REMARK   72  A    between atoms: _164  and  _167
REMARK   73  A    between atoms: _167  and  _168
REMARK   74  A    between atoms: _171  and  _173
REMARK   75  A    between atoms: _173  and  _174
REMARK   76  A    between atoms: _173  and  _176
REMARK   77  A    between atoms: _179  and  _181
REMARK   78  A    between atoms: _181  and  _182
REMARK   79  A    between atoms: _181  and  _184
REMARK   80  A    between atoms: _184  and  _185
REMARK   81  A    between atoms: _187  and  _189
REMARK   82  A    between atoms: _189  and  _190
REMARK   83  A    between atoms: _189  and  _192
REMARK   84  A    between atoms: _192  and  _193
REMARK   85  A    between atoms: _203  and  _205
REMARK   86  A    between atoms: _205  and  _206
REMARK   87  A    between atoms: _208  and  _210
REMARK   88  A    between atoms: _210  and  _211
REMARK   89  A    between atoms: _210  and  _213
REMARK   90  A    between atoms: _213  and  _214
REMARK   91  A    between atoms: _214  and  _215
REMARK   92  A    between atoms: _218  and  _220
REMARK   93  A    between atoms: _220  and  _221
REMARK   94  A    between atoms: _223  and  _225
REMARK   95  A    between atoms: _225  and  _226
REMARK   96  A    between atoms: _225  and  _228
REMARK   97  A    between atoms: _228  and  _229
REMARK   98  A    between atoms: _230  and  _232
REMARK   99  A    between atoms: _232  and  _233
REMARK  100  A    between atoms: _232  and  _235
REMARK  101  A    between atoms: _235  and  _236
REMARK  102  A    between atoms: _239  and  _241
REMARK  103  A    between atoms: _241  and  _242
REMARK  104  A    between atoms: _241  and  _244
REMARK  105  A    between atoms: _244  and  _245
REMARK  106  A    between atoms: _245  and  _246
REMARK  107  A    between atoms: _246  and  _247
REMARK  108  A    between atoms: _256  and  _258
REMARK  109  A    between atoms: _258  and  _259
REMARK  110  A    between atoms: _258  and  _261
REMARK  111  A    between atoms: _261  and  _262
REMARK  112  A    between atoms: _262  and  _263
REMARK  113  A    between atoms: _263  and  _264
REMARK  114  A    between atoms: _264  and  _265
REMARK  115  A    between atoms: _269  and  _271
REMARK  116  A    between atoms: _271  and  _272
REMARK  117  A    between atoms: _271  and  _274
REMARK  118  A    between atoms: _274  and  _275
REMARK  119  A    between atoms: _280  and  _281
REMARK  120  A    between atoms: _283  and  _285
REMARK  121  A    between atoms: _285  and  _286
REMARK  122  A    between atoms: _288  and  _290
REMARK  123  A    between atoms: _290  and  _291
REMARK  124  A    between atoms: _290  and  _293
REMARK  125  A    between atoms: _293  and  _294
REMARK  126  A    between atoms: _300  and  _302
REMARK  127  A    between atoms: _302  and  _303
REMARK  128  A    between atoms: _302  and  _305
REMARK  129  A    between atoms: _305  and  _306
REMARK  130  A    between atoms: _311  and  _312
REMARK                            x       y       z     vdW  Elec       q    Type
REMARK                         _______ _______ _______ _____ _____    ______ ____
ROOT
ATOM      1  O   HOH     1      11.985  -8.109  25.171  0.00  0.00    +0.000 OA
ENDROOT
TORSDOF 0
REMARK  Name = ../refined-set-2016/1c5o/1c5o_pocket.pdb
REMARK  130 active torsions:
REMARK  status: ('A' for Active; 'I' for Inactive)
REMARK    1  A    between atoms: _1  and  _5
REMARK    2  A    between atoms: _5  and  _6
REMARK    3  A    between atoms: _5  and  _8
REMARK    4  A    between atoms: _8  and  _9
REMARK    5  A    between atoms: _12  and  _14
REMARK    6  A    between atoms: _14  and  _15
REMARK    7  A    between atoms: _14  and  _17
REMARK    8  A    between atoms: _20  and  _22
REMARK    9  A    between atoms: _22  and  _23
REMARK   10  A    between atoms: _22  and  _25
REMARK   11  A    between atoms: _25  and  _26
REMARK   12  A    between atoms: _31  and  _33
REMARK   13  A    between atoms: _33  and  _34
REMARK   14  A    between atoms: _33  and  _36
REMARK   15  A    between atoms: _36  and  _37
REMARK   16  A    between atoms: _40  and  _42
REMARK   17  A    between atoms: _42  and  _43
REMARK   18  A    between atoms: _42  and  _45
REMARK   19  A    between atoms: _45  and  _46
REMARK   20  A    between atoms: _49  and  _51
REMARK   21  A    between atoms: _51  and  _52
REMARK   22  A    between atoms: _51  and  _54
REMARK   23  A    between atoms: _57  and  _59
REMARK   24  A    between atoms: _59  and  _60
REMARK   25  A    between atoms: _59  and  _62
REMARK   26  A    between atoms: _62  and  _63
REMARK   27  A    between atoms: _68  and  _70
REMARK   28  A    between atoms: _70  and  _71
REMARK   29  A    between atoms: _70  and  _73
REMARK   30  A    between atoms: _73  and  _74
REMARK   31  A    between atoms: _74  and  _75
REMARK   32  A    between atoms: _78  and  _80
REMARK   33  A    between atoms: _80  and  _81
REMARK   34  A    between atoms: _80  and  _83
REMARK   35  A    between atoms: _83  and  _84
REMARK   36  A    between atoms: _87  and  _89
REMARK   37  A    between atoms: _89  and  _90
REMARK   38  A    between atoms: _93  and  _95
REMARK   39  A    between atoms: _95  and  _96
REMARK   40  A    between atoms: _98  and  _100
REMARK   41  A    between atoms: _100  and  _101
REMARK   42  A    between atoms: _100  and  _103
REMARK   43  A    between atoms: _103  and  _104
REMARK   44  A    between atoms: _107  and  _109
REMARK   45  A    between atoms: _109  and  _110
REMARK   46  A    between atoms: _113  and  _115
REMARK   47  A    between atoms: _115  and  _116
REMARK   48  A    between atoms: _115  and  _118
REMARK   49  A    between atoms: _118  and  _119
REMARK   50  A    between atoms: _119  and  _229
REMARK   51  A    between atoms: _120  and  _122
REMARK   52  A    between atoms: _122  and  _123
REMARK   53  A    between atoms: _122  and  _125
REMARK   54  A    between atoms: _125  and  _126
REMARK   55  A    between atoms: _126  and  _127
REMARK   56  A    between atoms: _130  and  _132
REMARK   57  A    between atoms: _132  and  _133
REMARK   58  A    between atoms: _135  and  _137
REMARK   59  A    between atoms: _137  and  _138
REMARK   60  A    between atoms: _137  and  _140
REMARK   61  A    between atoms: _140  and  _141
REMARK   62  A    between atoms: _144  and  _146
REMARK   63  A    between atoms: _146  and  _147
REMARK   64  A    between atoms: _146  and  _149
REMARK   65  A    between atoms: _149  and  _150
REMARK   66  A    between atoms: _152  and  _154
REMARK   67  A    between atoms: _154  and  _155
REMARK   68  A    between atoms: _157  and  _159
REMARK   69  A    between atoms: _159  and  _160
REMARK   70  A    between atoms: _162  and  _164
REMARK   71  A    between atoms: _164  and  _165
REMARK   72  A    between atoms: _164  and  _167
REMARK   73  A    between atoms: _167  and  _168
REMARK   74  A    between atoms: _171  and  _173
REMARK   75  A    between atoms: _173  and  _174
REMARK   76  A    between atoms: _173  and  _176
REMARK   77  A    between atoms: _179  and  _181
REMARK   78  A    between atoms: _181  and  _182
REMARK   79  A    between atoms: _181  and  _184
REMARK   80  A    between atoms: _184  and  _185
REMARK   81  A    between atoms: _187  and  _189
REMARK   82  A    between atoms: _189  and  _190
REMARK   83  A    between atoms: _189  and  _192
REMARK   84  A    between atoms: _192  and  _193
REMARK   85  A    between atoms: _203  and  _205
REMARK   86  A    between atoms: _205  and  _206
REMARK   87  A    between atoms: _208  and  _210
REMARK   88  A    between atoms: _210  and  _211
REMARK   89  A    between atoms: _210  and  _213
REMARK   90  A    between atoms: _213  and  _214
REMARK   91  A    between atoms: _214  and  _215
REMARK   92  A    between atoms: _218  and  _220
REMARK   93  A    between atoms: _220  and  _221
REMARK   94  A    between atoms: _223  and  _225
REMARK   95  A    between atoms: _225  and  _226
REMARK   96  A    between atoms: _225  and  _228
REMARK   97  A    between atoms: _228  and  _229
REMARK   98  A    between atoms: _230  and  _232
REMARK   99  A    between atoms: _232  and  _233
REMARK  100  A    between atoms: _232  and  _235
REMARK  101  A    between atoms: _235  and  _236
REMARK  102  A    between atoms: _239  and  _241
REMARK  103  A    between atoms: _241  and  _242
REMARK  104  A    between atoms: _241  and  _244
REMARK  105  A    between atoms: _244  and  _245
REMARK  106  A    between atoms: _245  and  _246
REMARK  107  A    between atoms: _246  and  _247
REMARK  108  A    between atoms: _256  and  _258
REMARK  109  A    between atoms: _258  and  _259
REMARK  110  A    between atoms: _258  and  _261
REMARK  111  A    between atoms: _261  and  _262
REMARK  112  A    between atoms: _262  and  _263
REMARK  113  A    between atoms: _263  and  _264
REMARK  114  A    between atoms: _264  and  _265
REMARK  115  A    between atoms: _269  and  _271
REMARK  116  A    between atoms: _271  and  _272
REMARK  117  A    between atoms: _271  and  _274
REMARK  118  A    between atoms: _274  and  _275
REMARK  119  A    between atoms: _280  and  _281
REMARK  120  A    between atoms: _283  and  _285
REMARK  121  A    between atoms: _285  and  _286
REMARK  122  A    between atoms: _288  and  _290
REMARK  123  A    between atoms: _290  and  _291
REMARK  124  A    between atoms: _290  and  _293
REMARK  125  A    between atoms: _293  and  _294
REMARK  126  A    between atoms: _300  and  _302
REMARK  127  A    between atoms: _302  and  _303
REMARK  128  A    between atoms: _302  and  _305
REMARK  129  A    between atoms: _305  and  _306
REMARK  130  A    between atoms: _311  and  _312
REMARK                            x       y       z     vdW  Elec       q    Type
REMARK                         _______ _______ _______ _____ _____    ______ ____
ROOT
ATOM      1  O   HOH     1      11.915 -16.381  20.001  0.00  0.00    +0.000 OA
ENDROOT
TORSDOF 0
REMARK  Name = ../refined-set-2016/1c5o/1c5o_pocket.pdb
REMARK  130 active torsions:
REMARK  status: ('A' for Active; 'I' for Inactive)
REMARK    1  A    between atoms: _1  and  _5
REMARK    2  A    between atoms: _5  and  _6
REMARK    3  A    between atoms: _5  and  _8
REMARK    4  A    between atoms: _8  and  _9
REMARK    5  A    between atoms: _12  and  _14
REMARK    6  A    between atoms: _14  and  _15
REMARK    7  A    between atoms: _14  and  _17
REMARK    8  A    between atoms: _20  and  _22
REMARK    9  A    between atoms: _22  and  _23
REMARK   10  A    between atoms: _22  and  _25
REMARK   11  A    between atoms: _25  and  _26
REMARK   12  A    between atoms: _31  and  _33
REMARK   13  A    between atoms: _33  and  _34
REMARK   14  A    between atoms: _33  and  _36
REMARK   15  A    between atoms: _36  and  _37
REMARK   16  A    between atoms: _40  and  _42
REMARK   17  A    between atoms: _42  and  _43
REMARK   18  A    between atoms: _42  and  _45
REMARK   19  A    between atoms: _45  and  _46
REMARK   20  A    between atoms: _49  and  _51
REMARK   21  A    between atoms: _51  and  _52
REMARK   22  A    between atoms: _51  and  _54
REMARK   23  A    between atoms: _57  and  _59
REMARK   24  A    between atoms: _59  and  _60
REMARK   25  A    between atoms: _59  and  _62
REMARK   26  A    between atoms: _62  and  _63
REMARK   27  A    between atoms: _68  and  _70
REMARK   28  A    between atoms: _70  and  _71
REMARK   29  A    between atoms: _70  and  _73
REMARK   30  A    between atoms: _73  and  _74
REMARK   31  A    between atoms: _74  and  _75
REMARK   32  A    between atoms: _78  and  _80
REMARK   33  A    between atoms: _80  and  _81
REMARK   34  A    between atoms: _80  and  _83
REMARK   35  A    between atoms: _83  and  _84
REMARK   36  A    between atoms: _87  and  _89
REMARK   37  A    between atoms: _89  and  _90
REMARK   38  A    between atoms: _93  and  _95
REMARK   39  A    between atoms: _95  and  _96
REMARK   40  A    between atoms: _98  and  _100
REMARK   41  A    between atoms: _100  and  _101
REMARK   42  A    between atoms: _100  and  _103
REMARK   43  A    between atoms: _103  and  _104
REMARK   44  A    between atoms: _107  and  _109
REMARK   45  A    between atoms: _109  and  _110
REMARK   46  A    between atoms: _113  and  _115
REMARK   47  A    between atoms: _115  and  _116
REMARK   48  A    between atoms: _115  and  _118
REMARK   49  A    between atoms: _118  and  _119
REMARK   50  A    between atoms: _119  and  _229
REMARK   51  A    between atoms: _120  and  _122
REMARK   52  A    between atoms: _122  and  _123
REMARK   53  A    between atoms: _122  and  _125
REMARK   54  A    between atoms: _125  and  _126
REMARK   55  A    between atoms: _126  and  _127
REMARK   56  A    between atoms: _130  and  _132
REMARK   57  A    between atoms: _132  and  _133
REMARK   58  A    between atoms: _135  and  _137
REMARK   59  A    between atoms: _137  and  _138
REMARK   60  A    between atoms: _137  and  _140
REMARK   61  A    between atoms: _140  and  _141
REMARK   62  A    between atoms: _144  and  _146
REMARK   63  A    between atoms: _146  and  _147
REMARK   64  A    between atoms: _146  and  _149
REMARK   65  A    between atoms: _149  and  _150
REMARK   66  A    between atoms: _152  and  _154
REMARK   67  A    between atoms: _154  and  _155
REMARK   68  A    between atoms: _157  and  _159
REMARK   69  A    between atoms: _159  and  _160
REMARK   70  A    between atoms: _162  and  _164
REMARK   71  A    between atoms: _164  and  _165
REMARK   72  A    between atoms: _164  and  _167
REMARK   73  A    between atoms: _167  and  _168
REMARK   74  A    between atoms: _171  and  _173
REMARK   75  A    between atoms: _173  and  _174
REMARK   76  A    between atoms: _173  and  _176
REMARK   77  A    between atoms: _179  and  _181
REMARK   78  A    between atoms: _181  and  _182
REMARK   79  A    between atoms: _181  and  _184
REMARK   80  A    between atoms: _184  and  _185
REMARK   81  A    between atoms: _187  and  _189
REMARK   82  A    between atoms: _189  and  _190
REMARK   83  A    between atoms: _189  and  _192
REMARK   84  A    between atoms: _192  and  _193
REMARK   85  A    between atoms: _203  and  _205
REMARK   86  A    between atoms: _205  and  _206
REMARK   87  A    between atoms: _208  and  _210
REMARK   88  A    between atoms: _210  and  _211
REMARK   89  A    between atoms: _210  and  _213
REMARK   90  A    between atoms: _213  and  _214
REMARK   91  A    between atoms: _214  and  _215
REMARK   92  A    between atoms: _218  and  _220
REMARK   93  A    between atoms: _220  and  _221
REMARK   94  A    between atoms: _223  and  _225
REMARK   95  A    between atoms: _225  and  _226
REMARK   96  A    between atoms: _225  and  _228
REMARK   97  A    between atoms: _228  and  _229
REMARK   98  A    between atoms: _230  and  _232
REMARK   99  A    between atoms: _232  and  _233
REMARK  100  A    between atoms: _232  and  _235
REMARK  101  A    between atoms: _235  and  _236
REMARK  102  A    between atoms: _239  and  _241
REMARK  103  A    between atoms: _241  and  _242
REMARK  104  A    between atoms: _241  and  _244
REMARK  105  A    between atoms: _244  and  _245
REMARK  106  A    between atoms: _245  and  _246
REMARK  107  A    between atoms: _246  and  _247
REMARK  108  A    between atoms: _256  and  _258
REMARK  109  A    between atoms: _258  and  _259
REMARK  110  A    between atoms: _258  and  _261
REMARK  111  A    between atoms: _261  and  _262
REMARK  112  A    between atoms: _262  and  _263
REMARK  113  A    between atoms: _263  and  _264
REMARK  114  A    between atoms: _264  and  _265
REMARK  115  A    between atoms: _269  and  _271
REMARK  116  A    between atoms: _271  and  _272
REMARK  117  A    between atoms: _271  and  _274
REMARK  118  A    between atoms: _274  and  _275
REMARK  119  A    between atoms: _280  and  _281
REMARK  120  A    between atoms: _283  and  _285
REMARK  121  A    between atoms: _285  and  _286
REMARK  122  A    between atoms: _288  and  _290
REMARK  123  A    between atoms: _290  and  _291
REMARK  124  A    between atoms: _290  and  _293
REMARK  125  A    between atoms: _293  and  _294
REMARK  126  A    between atoms: _300  and  _302
REMARK  127  A    between atoms: _302  and  _303
REMARK  128  A    between atoms: _302  and  _305
REMARK  129  A    between atoms: _305  and  _306
REMARK  130  A    between atoms: _311  and  _312
REMARK                            x       y       z     vdW  Elec       q    Type
REMARK                         _______ _______ _______ _____ _____    ______ ____
ROOT
ATOM      1  O   HOH     1      19.364 -14.515  22.296  0.00  0.00    +0.000 OA
ENDROOT
TORSDOF 0
REMARK  Name = ../refined-set-2016/1c5o/1c5o_pocket.pdb
REMARK  130 active torsions:
REMARK  status: ('A' for Active; 'I' for Inactive)
REMARK    1  A    between atoms: _1  and  _5
REMARK    2  A    between atoms: _5  and  _6
REMARK    3  A    between atoms: _5  and  _8
REMARK    4  A    between atoms: _8  and  _9
REMARK    5  A    between atoms: _12  and  _14
REMARK    6  A    between atoms: _14  and  _15
REMARK    7  A    between atoms: _14  and  _17
REMARK    8  A    between atoms: _20  and  _22
REMARK    9  A    between atoms: _22  and  _23
REMARK   10  A    between atoms: _22  and  _25
REMARK   11  A    between atoms: _25  and  _26
REMARK   12  A    between atoms: _31  and  _33
REMARK   13  A    between atoms: _33  and  _34
REMARK   14  A    between atoms: _33  and  _36
REMARK   15  A    between atoms: _36  and  _37
REMARK   16  A    between atoms: _40  and  _42
REMARK   17  A    between atoms: _42  and  _43
REMARK   18  A    between atoms: _42  and  _45
REMARK   19  A    between atoms: _45  and  _46
REMARK   20  A    between atoms: _49  and  _51
REMARK   21  A    between atoms: _51  and  _52
REMARK   22  A    between atoms: _51  and  _54
REMARK   23  A    between atoms: _57  and  _59
REMARK   24  A    between atoms: _59  and  _60
REMARK   25  A    between atoms: _59  and  _62
REMARK   26  A    between atoms: _62  and  _63
REMARK   27  A    between atoms: _68  and  _70
REMARK   28  A    between atoms: _70  and  _71
REMARK   29  A    between atoms: _70  and  _73
REMARK   30  A    between atoms: _73  and  _74
REMARK   31  A    between atoms: _74  and  _75
REMARK   32  A    between atoms: _78  and  _80
REMARK   33  A    between atoms: _80  and  _81
REMARK   34  A    between atoms: _80  and  _83
REMARK   35  A    between atoms: _83  and  _84
REMARK   36  A    between atoms: _87  and  _89
REMARK   37  A    between atoms: _89  and  _90
REMARK   38  A    between atoms: _93  and  _95
REMARK   39  A    between atoms: _95  and  _96
REMARK   40  A    between atoms: _98  and  _100
REMARK   41  A    between atoms: _100  and  _101
REMARK   42  A    between atoms: _100  and  _103
REMARK   43  A    between atoms: _103  and  _104
REMARK   44  A    between atoms: _107  and  _109
REMARK   45  A    between atoms: _109  and  _110
REMARK   46  A    between atoms: _113  and  _115
REMARK   47  A    between atoms: _115  and  _116
REMARK   48  A    between atoms: _115  and  _118
REMARK   49  A    between atoms: _118  and  _119
REMARK   50  A    between atoms: _119  and  _229
REMARK   51  A    between atoms: _120  and  _122
REMARK   52  A    between atoms: _122  and  _123
REMARK   53  A    between atoms: _122  and  _125
REMARK   54  A    between atoms: _125  and  _126
REMARK   55  A    between atoms: _126  and  _127
REMARK   56  A    between atoms: _130  and  _132
REMARK   57  A    between atoms: _132  and  _133
REMARK   58  A    between atoms: _135  and  _137
REMARK   59  A    between atoms: _137  and  _138
REMARK   60  A    between atoms: _137  and  _140
REMARK   61  A    between atoms: _140  and  _141
REMARK   62  A    between atoms: _144  and  _146
REMARK   63  A    between atoms: _146  and  _147
REMARK   64  A    between atoms: _146  and  _149
REMARK   65  A    between atoms: _149  and  _150
REMARK   66  A    between atoms: _152  and  _154
REMARK   67  A    between atoms: _154  and  _155
REMARK   68  A    between atoms: _157  and  _159
REMARK   69  A    between atoms: _159  and  _160
REMARK   70  A    between atoms: _162  and  _164
REMARK   71  A    between atoms: _164  and  _165
REMARK   72  A    between atoms: _164  and  _167
REMARK   73  A    between atoms: _167  and  _168
REMARK   74  A    between atoms: _171  and  _173
REMARK   75  A    between atoms: _173  and  _174
REMARK   76  A    between atoms: _173  and  _176
REMARK   77  A    between atoms: _179  and  _181
REMARK   78  A    between atoms: _181  and  _182
REMARK   79  A    between atoms: _181  and  _184
REMARK   80  A    between atoms: _184  and  _185
REMARK   81  A    between atoms: _187  and  _189
REMARK   82  A    between atoms: _189  and  _190
REMARK   83  A    between atoms: _189  and  _192
REMARK   84  A    between atoms: _192  and  _193
REMARK   85  A    between atoms: _203  and  _205
REMARK   86  A    between atoms: _205  and  _206
REMARK   87  A    between atoms: _208  and  _210
REMARK   88  A    between atoms: _210  and  _211
REMARK   89  A    between atoms: _210  and  _213
REMARK   90  A    between atoms: _213  and  _214
REMARK   91  A    between atoms: _214  and  _215
REMARK   92  A    between atoms: _218  and  _220
REMARK   93  A    between atoms: _220  and  _221
REMARK   94  A    between atoms: _223  and  _225
REMARK   95  A    between atoms: _225  and  _226
REMARK   96  A    between atoms: _225  and  _228
REMARK   97  A    between atoms: _228  and  _229
REMARK   98  A    between atoms: _230  and  _232
REMARK   99  A    between atoms: _232  and  _233
REMARK  100  A    between atoms: _232  and  _235
REMARK  101  A    between atoms: _235  and  _236
REMARK  102  A    between atoms: _239  and  _241
REMARK  103  A    between atoms: _241  and  _242
REMARK  104  A    between atoms: _241  and  _244
REMARK  105  A    between atoms: _244  and  _245
REMARK  106  A    between atoms: _245  and  _246
REMARK  107  A    between atoms: _246  and  _247
REMARK  108  A    between atoms: _256  and  _258
REMARK  109  A    between atoms: _258  and  _259
REMARK  110  A    between atoms: _258  and  _261
REMARK  111  A    between atoms: _261  and  _262
REMARK  112  A    between atoms: _262  and  _263
REMARK  113  A    between atoms: _263  and  _264
REMARK  114  A    between atoms: _264  and  _265
REMARK  115  A    between atoms: _269  and  _271
REMARK  116  A    between atoms: _271  and  _272
REMARK  117  A    between atoms: _271  and  _274
REMARK  118  A    between atoms: _274  and  _275
REMARK  119  A    between atoms: _280  and  _281
REMARK  120  A    between atoms: _283  and  _285
REMARK  121  A    between atoms: _285  and  _286
REMARK  122  A    between atoms: _288  and  _290
REMARK  123  A    between atoms: _290  and  _291
REMARK  124  A    between atoms: _290  and  _293
REMARK  125  A    between atoms: _293  and  _294
REMARK  126  A    between atoms: _300  and  _302
REMARK  127  A    between atoms: _302  and  _303
REMARK  128  A    between atoms: _302  and  _305
REMARK  129  A    between atoms: _305  and  _306
REMARK  130  A    between atoms: _311  and  _312
REMARK                            x       y       z     vdW  Elec       q    Type
REMARK                         _______ _______ _______ _____ _____    ______ ____
ROOT
ATOM      1  O   HOH     1      15.438 -11.649  13.679  0.00  0.00    +0.000 OA
ENDROOT
TORSDOF 0
REMARK  Name = ../refined-set-2016/1c5o/1c5o_pocket.pdb
REMARK  130 active torsions:
REMARK  status: ('A' for Active; 'I' for Inactive)
REMARK    1  A    between atoms: _1  and  _5
REMARK    2  A    between atoms: _5  and  _6
REMARK    3  A    between atoms: _5  and  _8
REMARK    4  A    between atoms: _8  and  _9
REMARK    5  A    between atoms: _12  and  _14
REMARK    6  A    between atoms: _14  and  _15
REMARK    7  A    between atoms: _14  and  _17
REMARK    8  A    between atoms: _20  and  _22
REMARK    9  A    between atoms: _22  and  _23
REMARK   10  A    between atoms: _22  and  _25
REMARK   11  A    between atoms: _25  and  _26
REMARK   12  A    between atoms: _31  and  _33
REMARK   13  A    between atoms: _33  and  _34
REMARK   14  A    between atoms: _33  and  _36
REMARK   15  A    between atoms: _36  and  _37
REMARK   16  A    between atoms: _40  and  _42
REMARK   17  A    between atoms: _42  and  _43
REMARK   18  A    between atoms: _42  and  _45
REMARK   19  A    between atoms: _45  and  _46
REMARK   20  A    between atoms: _49  and  _51
REMARK   21  A    between atoms: _51  and  _52
REMARK   22  A    between atoms: _51  and  _54
REMARK   23  A    between atoms: _57  and  _59
REMARK   24  A    between atoms: _59  and  _60
REMARK   25  A    between atoms: _59  and  _62
REMARK   26  A    between atoms: _62  and  _63
REMARK   27  A    between atoms: _68  and  _70
REMARK   28  A    between atoms: _70  and  _71
REMARK   29  A    between atoms: _70  and  _73
REMARK   30  A    between atoms: _73  and  _74
REMARK   31  A    between atoms: _74  and  _75
REMARK   32  A    between atoms: _78  and  _80
REMARK   33  A    between atoms: _80  and  _81
REMARK   34  A    between atoms: _80  and  _83
REMARK   35  A    between atoms: _83  and  _84
REMARK   36  A    between atoms: _87  and  _89
REMARK   37  A    between atoms: _89  and  _90
REMARK   38  A    between atoms: _93  and  _95
REMARK   39  A    between atoms: _95  and  _96
REMARK   40  A    between atoms: _98  and  _100
REMARK   41  A    between atoms: _100  and  _101
REMARK   42  A    between atoms: _100  and  _103
REMARK   43  A    between atoms: _103  and  _104
REMARK   44  A    between atoms: _107  and  _109
REMARK   45  A    between atoms: _109  and  _110
REMARK   46  A    between atoms: _113  and  _115
REMARK   47  A    between atoms: _115  and  _116
REMARK   48  A    between atoms: _115  and  _118
REMARK   49  A    between atoms: _118  and  _119
REMARK   50  A    between atoms: _119  and  _229
REMARK   51  A    between atoms: _120  and  _122
REMARK   52  A    between atoms: _122  and  _123
REMARK   53  A    between atoms: _122  and  _125
REMARK   54  A    between atoms: _125  and  _126
REMARK   55  A    between atoms: _126  and  _127
REMARK   56  A    between atoms: _130  and  _132
REMARK   57  A    between atoms: _132  and  _133
REMARK   58  A    between atoms: _135  and  _137
REMARK   59  A    between atoms: _137  and  _138
REMARK   60  A    between atoms: _137  and  _140
REMARK   61  A    between atoms: _140  and  _141
REMARK   62  A    between atoms: _144  and  _146
REMARK   63  A    between atoms: _146  and  _147
REMARK   64  A    between atoms: _146  and  _149
REMARK   65  A    between atoms: _149  and  _150
REMARK   66  A    between atoms: _152  and  _154
REMARK   67  A    between atoms: _154  and  _155
REMARK   68  A    between atoms: _157  and  _159
REMARK   69  A    between atoms: _159  and  _160
REMARK   70  A    between atoms: _162  and  _164
REMARK   71  A    between atoms: _164  and  _165
REMARK   72  A    between atoms: _164  and  _167
REMARK   73  A    between atoms: _167  and  _168
REMARK   74  A    between atoms: _171  and  _173
REMARK   75  A    between atoms: _173  and  _174
REMARK   76  A    between atoms: _173  and  _176
REMARK   77  A    between atoms: _179  and  _181
REMARK   78  A    between atoms: _181  and  _182
REMARK   79  A    between atoms: _181  and  _184
REMARK   80  A    between atoms: _184  and  _185
REMARK   81  A    between atoms: _187  and  _189
REMARK   82  A    between atoms: _189  and  _190
REMARK   83  A    between atoms: _189  and  _192
REMARK   84  A    between atoms: _192  and  _193
REMARK   85  A    between atoms: _203  and  _205
REMARK   86  A    between atoms: _205  and  _206
REMARK   87  A    between atoms: _208  and  _210
REMARK   88  A    between atoms: _210  and  _211
REMARK   89  A    between atoms: _210  and  _213
REMARK   90  A    between atoms: _213  and  _214
REMARK   91  A    between atoms: _214  and  _215
REMARK   92  A    between atoms: _218  and  _220
REMARK   93  A    between atoms: _220  and  _221
REMARK   94  A    between atoms: _223  and  _225
REMARK   95  A    between atoms: _225  and  _226
REMARK   96  A    between atoms: _225  and  _228
REMARK   97  A    between atoms: _228  and  _229
REMARK   98  A    between atoms: _230  and  _232
REMARK   99  A    between atoms: _232  and  _233
REMARK  100  A    between atoms: _232  and  _235
REMARK  101  A    between atoms: _235  and  _236
REMARK  102  A    between atoms: _239  and  _241
REMARK  103  A    between atoms: _241  and  _242
REMARK  104  A    between atoms: _241  and  _244
REMARK  105  A    between atoms: _244  and  _245
REMARK  106  A    between atoms: _245  and  _246
REMARK  107  A    between atoms: _246  and  _247
REMARK  108  A    between atoms: _256  and  _258
REMARK  109  A    between atoms: _258  and  _259
REMARK  110  A    between atoms: _258  and  _261
REMARK  111  A    between atoms: _261  and  _262
REMARK  112  A    between atoms: _262  and  _263
REMARK  113  A    between atoms: _263  and  _264
REMARK  114  A    between atoms: _264  and  _265
REMARK  115  A    between atoms: _269  and  _271
REMARK  116  A    between atoms: _271  and  _272
REMARK  117  A    between atoms: _271  and  _274
REMARK  118  A    between atoms: _274  and  _275
REMARK  119  A    between atoms: _280  and  _281
REMARK  120  A    between atoms: _283  and  _285
REMARK  121  A    between atoms: _285  and  _286
REMARK  122  A    between atoms: _288  and  _290
REMARK  123  A    between atoms: _290  and  _291
REMARK  124  A    between atoms: _290  and  _293
REMARK  125  A    between atoms: _293  and  _294
REMARK  126  A    between atoms: _300  and  _302
REMARK  127  A    between atoms: _302  and  _303
REMARK  128  A    between atoms: _302  and  _305
REMARK  129  A    between atoms: _305  and  _306
REMARK  130  A    between atoms: _311  and  _312
REMARK                            x       y       z     vdW  Elec       q    Type
REMARK                         _______ _______ _______ _____ _____    ______ ____
ROOT
ATOM      1  O   HOH     1      11.069 -19.764  18.179  0.00  0.00    +0.000 OA
ENDROOT
TORSDOF 0
REMARK  Name = ../refined-set-2016/1c5o/1c5o_pocket.pdb
REMARK  130 active torsions:
REMARK  status: ('A' for Active; 'I' for Inactive)
REMARK    1  A    between atoms: _1  and  _5
REMARK    2  A    between atoms: _5  and  _6
REMARK    3  A    between atoms: _5  and  _8
REMARK    4  A    between atoms: _8  and  _9
REMARK    5  A    between atoms: _12  and  _14
REMARK    6  A    between atoms: _14  and  _15
REMARK    7  A    between atoms: _14  and  _17
REMARK    8  A    between atoms: _20  and  _22
REMARK    9  A    between atoms: _22  and  _23
REMARK   10  A    between atoms: _22  and  _25
REMARK   11  A    between atoms: _25  and  _26
REMARK   12  A    between atoms: _31  and  _33
REMARK   13  A    between atoms: _33  and  _34
REMARK   14  A    between atoms: _33  and  _36
REMARK   15  A    between atoms: _36  and  _37
REMARK   16  A    between atoms: _40  and  _42
REMARK   17  A    between atoms: _42  and  _43
REMARK   18  A    between atoms: _42  and  _45
REMARK   19  A    between atoms: _45  and  _46
REMARK   20  A    between atoms: _49  and  _51
REMARK   21  A    between atoms: _51  and  _52
REMARK   22  A    between atoms: _51  and  _54
REMARK   23  A    between atoms: _57  and  _59
REMARK   24  A    between atoms: _59  and  _60
REMARK   25  A    between atoms: _59  and  _62
REMARK   26  A    between atoms: _62  and  _63
REMARK   27  A    between atoms: _68  and  _70
REMARK   28  A    between atoms: _70  and  _71
REMARK   29  A    between atoms: _70  and  _73
REMARK   30  A    between atoms: _73  and  _74
REMARK   31  A    between atoms: _74  and  _75
REMARK   32  A    between atoms: _78  and  _80
REMARK   33  A    between atoms: _80  and  _81
REMARK   34  A    between atoms: _80  and  _83
REMARK   35  A    between atoms: _83  and  _84
REMARK   36  A    between atoms: _87  and  _89
REMARK   37  A    between atoms: _89  and  _90
REMARK   38  A    between atoms: _93  and  _95
REMARK   39  A    between atoms: _95  and  _96
REMARK   40  A    between atoms: _98  and  _100
REMARK   41  A    between atoms: _100  and  _101
REMARK   42  A    between atoms: _100  and  _103
REMARK   43  A    between atoms: _103  and  _104
REMARK   44  A    between atoms: _107  and  _109
REMARK   45  A    between atoms: _109  and  _110
REMARK   46  A    between atoms: _113  and  _115
REMARK   47  A    between atoms: _115  and  _116
REMARK   48  A    between atoms: _115  and  _118
REMARK   49  A    between atoms: _118  and  _119
REMARK   50  A    between atoms: _119  and  _229
REMARK   51  A    between atoms: _120  and  _122
REMARK   52  A    between atoms: _122  and  _123
REMARK   53  A    between atoms: _122  and  _125
REMARK   54  A    between atoms: _125  and  _126
REMARK   55  A    between atoms: _126  and  _127
REMARK   56  A    between atoms: _130  and  _132
REMARK   57  A    between atoms: _132  and  _133
REMARK   58  A    between atoms: _135  and  _137
REMARK   59  A    between atoms: _137  and  _138
REMARK   60  A    between atoms: _137  and  _140
REMARK   61  A    between atoms: _140  and  _141
REMARK   62  A    between atoms: _144  and  _146
REMARK   63  A    between atoms: _146  and  _147
REMARK   64  A    between atoms: _146  and  _149
REMARK   65  A    between atoms: _149  and  _150
REMARK   66  A    between atoms: _152  and  _154
REMARK   67  A    between atoms: _154  and  _155
REMARK   68  A    between atoms: _157  and  _159
REMARK   69  A    between atoms: _159  and  _160
REMARK   70  A    between atoms: _162  and  _164
REMARK   71  A    between atoms: _164  and  _165
REMARK   72  A    between atoms: _164  and  _167
REMARK   73  A    between atoms: _167  and  _168
REMARK   74  A    between atoms: _171  and  _173
REMARK   75  A    between atoms: _173  and  _174
REMARK   76  A    between atoms: _173  and  _176
REMARK   77  A    between atoms: _179  and  _181
REMARK   78  A    between atoms: _181  and  _182
REMARK   79  A    between atoms: _181  and  _184
REMARK   80  A    between atoms: _184  and  _185
REMARK   81  A    between atoms: _187  and  _189
REMARK   82  A    between atoms: _189  and  _190
REMARK   83  A    between atoms: _189  and  _192
REMARK   84  A    between atoms: _192  and  _193
REMARK   85  A    between atoms: _203  and  _205
REMARK   86  A    between atoms: _205  and  _206
REMARK   87  A    between atoms: _208  and  _210
REMARK   88  A    between atoms: _210  and  _211
REMARK   89  A    between atoms: _210  and  _213
REMARK   90  A    between atoms: _213  and  _214
REMARK   91  A    between atoms: _214  and  _215
REMARK   92  A    between atoms: _218  and  _220
REMARK   93  A    between atoms: _220  and  _221
REMARK   94  A    between atoms: _223  and  _225
REMARK   95  A    between atoms: _225  and  _226
REMARK   96  A    between atoms: _225  and  _228
REMARK   97  A    between atoms: _228  and  _229
REMARK   98  A    between atoms: _230  and  _232
REMARK   99  A    between atoms: _232  and  _233
REMARK  100  A    between atoms: _232  and  _235
REMARK  101  A    between atoms: _235  and  _236
REMARK  102  A    between atoms: _239  and  _241
REMARK  103  A    between atoms: _241  and  _242
REMARK  104  A    between atoms: _241  and  _244
REMARK  105  A    between atoms: _244  and  _245
REMARK  106  A    between atoms: _245  and  _246
REMARK  107  A    between atoms: _246  and  _247
REMARK  108  A    between atoms: _256  and  _258
REMARK  109  A    between atoms: _258  and  _259
REMARK  110  A    between atoms: _258  and  _261
REMARK  111  A    between atoms: _261  and  _262
REMARK  112  A    between atoms: _262  and  _263
REMARK  113  A    between atoms: _263  and  _264
REMARK  114  A    between atoms: _264  and  _265
REMARK  115  A    between atoms: _269  and  _271
REMARK  116  A    between atoms: _271  and  _272
REMARK  117  A    between atoms: _271  and  _274
REMARK  118  A    between atoms: _274  and  _275
REMARK  119  A    between atoms: _280  and  _281
REMARK  120  A    between atoms: _283  and  _285
REMARK  121  A    between atoms: _285  and  _286
REMARK  122  A    between atoms: _288  and  _290
REMARK  123  A    between atoms: _290  and  _291
REMARK  124  A    between atoms: _290  and  _293
REMARK  125  A    between atoms: _293  and  _294
REMARK  126  A    between atoms: _300  and  _302
REMARK  127  A    between atoms: _302  and  _303
REMARK  128  A    between atoms: _302  and  _305
REMARK  129  A    between atoms: _305  and  _306
REMARK  130  A    between atoms: _311  and  _312
REMARK                            x       y       z     vdW  Elec       q    Type
REMARK                         _______ _______ _______ _____ _____    ______ ____
ROOT
ATOM      1  O   HOH     1      16.561 -12.051  16.391  0.00  0.00    +0.000 OA
ENDROOT
TORSDOF 0
REMARK  Name = ../refined-set-2016/1c5o/1c5o_pocket.pdb
REMARK  130 active torsions:
REMARK  status: ('A' for Active; 'I' for Inactive)
REMARK    1  A    between atoms: _1  and  _5
REMARK    2  A    between atoms: _5  and  _6
REMARK    3  A    between atoms: _5  and  _8
REMARK    4  A    between atoms: _8  and  _9
REMARK    5  A    between atoms: _12  and  _14
REMARK    6  A    between atoms: _14  and  _15
REMARK    7  A    between atoms: _14  and  _17
REMARK    8  A    between atoms: _20  and  _22
REMARK    9  A    between atoms: _22  and  _23
REMARK   10  A    between atoms: _22  and  _25
REMARK   11  A    between atoms: _25  and  _26
REMARK   12  A    between atoms: _31  and  _33
REMARK   13  A    between atoms: _33  and  _34
REMARK   14  A    between atoms: _33  and  _36
REMARK   15  A    between atoms: _36  and  _37
REMARK   16  A    between atoms: _40  and  _42
REMARK   17  A    between atoms: _42  and  _43
REMARK   18  A    between atoms: _42  and  _45
REMARK   19  A    between atoms: _45  and  _46
REMARK   20  A    between atoms: _49  and  _51
REMARK   21  A    between atoms: _51  and  _52
REMARK   22  A    between atoms: _51  and  _54
REMARK   23  A    between atoms: _57  and  _59
REMARK   24  A    between atoms: _59  and  _60
REMARK   25  A    between atoms: _59  and  _62
REMARK   26  A    between atoms: _62  and  _63
REMARK   27  A    between atoms: _68  and  _70
REMARK   28  A    between atoms: _70  and  _71
REMARK   29  A    between atoms: _70  and  _73
REMARK   30  A    between atoms: _73  and  _74
REMARK   31  A    between atoms: _74  and  _75
REMARK   32  A    between atoms: _78  and  _80
REMARK   33  A    between atoms: _80  and  _81
REMARK   34  A    between atoms: _80  and  _83
REMARK   35  A    between atoms: _83  and  _84
REMARK   36  A    between atoms: _87  and  _89
REMARK   37  A    between atoms: _89  and  _90
REMARK   38  A    between atoms: _93  and  _95
REMARK   39  A    between atoms: _95  and  _96
REMARK   40  A    between atoms: _98  and  _100
REMARK   41  A    between atoms: _100  and  _101
REMARK   42  A    between atoms: _100  and  _103
REMARK   43  A    between atoms: _103  and  _104
REMARK   44  A    between atoms: _107  and  _109
REMARK   45  A    between atoms: _109  and  _110
REMARK   46  A    between atoms: _113  and  _115
REMARK   47  A    between atoms: _115  and  _116
REMARK   48  A    between atoms: _115  and  _118
REMARK   49  A    between atoms: _118  and  _119
REMARK   50  A    between atoms: _119  and  _229
REMARK   51  A    between atoms: _120  and  _122
REMARK   52  A    between atoms: _122  and  _123
REMARK   53  A    between atoms: _122  and  _125
REMARK   54  A    between atoms: _125  and  _126
REMARK   55  A    between atoms: _126  and  _127
REMARK   56  A    between atoms: _130  and  _132
REMARK   57  A    between atoms: _132  and  _133
REMARK   58  A    between atoms: _135  and  _137
REMARK   59  A    between atoms: _137  and  _138
REMARK   60  A    between atoms: _137  and  _140
REMARK   61  A    between atoms: _140  and  _141
REMARK   62  A    between atoms: _144  and  _146
REMARK   63  A    between atoms: _146  and  _147
REMARK   64  A    between atoms: _146  and  _149
REMARK   65  A    between atoms: _149  and  _150
REMARK   66  A    between atoms: _152  and  _154
REMARK   67  A    between atoms: _154  and  _155
REMARK   68  A    between atoms: _157  and  _159
REMARK   69  A    between atoms: _159  and  _160
REMARK   70  A    between atoms: _162  and  _164
REMARK   71  A    between atoms: _164  and  _165
REMARK   72  A    between atoms: _164  and  _167
REMARK   73  A    between atoms: _167  and  _168
REMARK   74  A    between atoms: _171  and  _173
REMARK   75  A    between atoms: _173  and  _174
REMARK   76  A    between atoms: _173  and  _176
REMARK   77  A    between atoms: _179  and  _181
REMARK   78  A    between atoms: _181  and  _182
REMARK   79  A    between atoms: _181  and  _184
REMARK   80  A    between atoms: _184  and  _185
REMARK   81  A    between atoms: _187  and  _189
REMARK   82  A    between atoms: _189  and  _190
REMARK   83  A    between atoms: _189  and  _192
REMARK   84  A    between atoms: _192  and  _193
REMARK   85  A    between atoms: _203  and  _205
REMARK   86  A    between atoms: _205  and  _206
REMARK   87  A    between atoms: _208  and  _210
REMARK   88  A    between atoms: _210  and  _211
REMARK   89  A    between atoms: _210  and  _213
REMARK   90  A    between atoms: _213  and  _214
REMARK   91  A    between atoms: _214  and  _215
REMARK   92  A    between atoms: _218  and  _220
REMARK   93  A    between atoms: _220  and  _221
REMARK   94  A    between atoms: _223  and  _225
REMARK   95  A    between atoms: _225  and  _226
REMARK   96  A    between atoms: _225  and  _228
REMARK   97  A    between atoms: _228  and  _229
REMARK   98  A    between atoms: _230  and  _232
REMARK   99  A    between atoms: _232  and  _233
REMARK  100  A    between atoms: _232  and  _235
REMARK  101  A    between atoms: _235  and  _236
REMARK  102  A    between atoms: _239  and  _241
REMARK  103  A    between atoms: _241  and  _242
REMARK  104  A    between atoms: _241  and  _244
REMARK  105  A    between atoms: _244  and  _245
REMARK  106  A    between atoms: _245  and  _246
REMARK  107  A    between atoms: _246  and  _247
REMARK  108  A    between atoms: _256  and  _258
REMARK  109  A    between atoms: _258  and  _259
REMARK  110  A    between atoms: _258  and  _261
REMARK  111  A    between atoms: _261  and  _262
REMARK  112  A    between atoms: _262  and  _263
REMARK  113  A    between atoms: _263  and  _264
REMARK  114  A    between atoms: _264  and  _265
REMARK  115  A    between atoms: _269  and  _271
REMARK  116  A    between atoms: _271  and  _272
REMARK  117  A    between atoms: _271  and  _274
REMARK  118  A    between atoms: _274  and  _275
REMARK  119  A    between atoms: _280  and  _281
REMARK  120  A    between atoms: _283  and  _285
REMARK  121  A    between atoms: _285  and  _286
REMARK  122  A    between atoms: _288  and  _290
REMARK  123  A    between atoms: _290  and  _291
REMARK  124  A    between atoms: _290  and  _293
REMARK  125  A    between atoms: _293  and  _294
REMARK  126  A    between atoms: _300  and  _302
REMARK  127  A    between atoms: _302  and  _303
REMARK  128  A    between atoms: _302  and  _305
REMARK  129  A    between atoms: _305  and  _306
REMARK  130  A    between atoms: _311  and  _312
REMARK                            x       y       z     vdW  Elec       q    Type
REMARK                         _______ _______ _______ _____ _____    ______ ____
ROOT
ATOM      1  O   HOH     1      10.005 -17.383  16.006  0.00  0.00    +0.000 OA
ENDROOT
TORSDOF 0
