REMARK  Name = ../refined-set-2016/2vyt/2vyt_pocket.pdb
REMARK  80 active torsions:
REMARK  status: ('A' for Active; 'I' for Inactive)
REMARK    1  A    between atoms: _1  and  _3
REMARK    2  A    between atoms: _3  and  _4
REMARK    3  A    between atoms: _7  and  _9
REMARK    4  A    between atoms: _9  and  _10
REMARK    5  A    between atoms: _9  and  _12
REMARK    6  A    between atoms: _12  and  _13
REMARK    7  A    between atoms: _16  and  _18
REMARK    8  A    between atoms: _18  and  _19
REMARK    9  A    between atoms: _18  and  _21
REMARK   10  A    between atoms: _21  and  _22
REMARK   11  A    between atoms: _25  and  _27
REMARK   12  A    between atoms: _27  and  _28
REMARK   13  A    between atoms: _27  and  _30
REMARK   14  A    between atoms: _30  and  _31
REMARK   15  A    between atoms: _31  and  _32
REMARK   16  A    between atoms: _32  and  _33
REMARK   17  A    between atoms: _33  and  _34
REMARK   18  A    between atoms: _38  and  _40
REMARK   19  A    between atoms: _40  and  _41
REMARK   20  A    between atoms: _40  and  _43
REMARK   21  A    between atoms: _43  and  _44
REMARK   22  A    between atoms: _44  and  _45
REMARK   23  A    between atoms: _45  and  _46
REMARK   24  A    between atoms: _46  and  _47
REMARK   25  A    between atoms: _51  and  _53
REMARK   26  A    between atoms: _53  and  _54
REMARK   27  A    between atoms: _53  and  _56
REMARK   28  A    between atoms: _56  and  _57
REMARK   29  A    between atoms: _62  and  _64
REMARK   30  A    between atoms: _64  and  _65
REMARK   31  A    between atoms: _64  and  _67
REMARK   32  A    between atoms: _67  and  _68
REMARK   33  A    between atoms: _71  and  _73
REMARK   34  A    between atoms: _73  and  _74
REMARK   35  A    between atoms: _73  and  _76
REMARK   36  A    between atoms: _76  and  _77
REMARK   37  A    between atoms: _80  and  _82
REMARK   38  A    between atoms: _82  and  _83
REMARK   39  A    between atoms: _82  and  _85
REMARK   40  A    between atoms: _88  and  _89
REMARK   41  A    between atoms: _94  and  _96
REMARK   42  A    between atoms: _96  and  _97
REMARK   43  A    between atoms: _96  and  _99
REMARK   44  A    between atoms: _99  and  _100
REMARK   45  A    between atoms: _103  and  _105
REMARK   46  A    between atoms: _105  and  _106
REMARK   47  A    between atoms: _105  and  _108
REMARK   48  A    between atoms: _108  and  _109
REMARK   49  A    between atoms: _115  and  _117
REMARK   50  A    between atoms: _117  and  _118
REMARK   51  A    between atoms: _117  and  _120
REMARK   52  A    between atoms: _120  and  _121
REMARK   53  A    between atoms: _124  and  _126
REMARK   54  A    between atoms: _126  and  _127
REMARK   55  A    between atoms: _129  and  _131
REMARK   56  A    between atoms: _131  and  _132
REMARK   57  A    between atoms: _131  and  _134
REMARK   58  A    between atoms: _134  and  _135
REMARK   59  A    between atoms: _145  and  _147
REMARK   60  A    between atoms: _147  and  _148
REMARK   61  A    between atoms: _147  and  _150
REMARK   62  A    between atoms: _150  and  _151
REMARK   63  A    between atoms: _153  and  _155
REMARK   64  A    between atoms: _155  and  _156
REMARK   65  A    between atoms: _159  and  _161
REMARK   66  A    between atoms: _161  and  _162
REMARK   67  A    between atoms: _161  and  _164
REMARK   68  A    between atoms: _164  and  _165
REMARK   69  A    between atoms: _171  and  _173
REMARK   70  A    between atoms: _173  and  _174
REMARK   71  A    between atoms: _173  and  _176
REMARK   72  A    between atoms: _176  and  _177
REMARK   73  A    between atoms: _180  and  _182
REMARK   74  A    between atoms: _182  and  _183
REMARK   75  A    between atoms: _182  and  _185
REMARK   76  A    between atoms: _185  and  _186
REMARK   77  A    between atoms: _186  and  _187
REMARK   78  A    between atoms: _193  and  _194
REMARK   79  A    between atoms: _199  and  _201
REMARK   80  A    between atoms: _201  and  _202
REMARK                            x       y       z     vdW  Elec       q    Type
REMARK                         _______ _______ _______ _____ _____    ______ ____
ROOT
ATOM      1  CA  LYS A   4       6.876  44.596  53.134  0.00  0.00    +0.149 C 
ENDROOT
BRANCH   1   2
ATOM      2  C   LYS A   4       7.298  44.241  51.706  0.00  0.00    +0.241 C 
ATOM      3  N   LYS A   5       8.579  44.414  51.393  0.00  0.00    -0.297 N 
ATOM      4  H   LYS A   5       9.232  44.802  52.103  0.00  0.00    +0.150 HD
ATOM      5  O   LYS A   4       6.477  43.799  50.905  0.00  0.00    -0.273 OA
BRANCH   3   6
ATOM      6  CA  LYS A   5       9.082  44.067  50.066  0.00  0.00    +0.149 C 
BRANCH   6   7
ATOM      7  C   LYS A   5       9.540  42.609  50.082  0.00  0.00    +0.241 C 
ATOM      8  N   ASN A   6       9.782  42.097  51.282  0.00  0.00    -0.298 N 
ATOM      9  H   ASN A   6       9.658  42.707  52.115  0.00  0.00    +0.150 HD
ATOM     10  O   LYS A   5       9.670  41.967  49.037  0.00  0.00    -0.273 OA
BRANCH   8  11
ATOM     11  CA  ASN A   6      10.215  40.716  51.490  0.00  0.00    +0.146 C 
BRANCH  11  12
ATOM     12  C   ASN A   6       9.561  40.290  52.803  0.00  0.00    +0.227 C 
ATOM     13  O   ASN A   6      10.234  40.113  53.818  0.00  0.00    -0.286 OA
ENDBRANCH  11  12
BRANCH  11  14
ATOM     14  CB  ASN A   6      11.742  40.663  51.605  0.00  0.00    +0.112 C 
BRANCH  14  15
ATOM     15  CG  ASN A   6      12.435  41.397  50.464  0.00  0.00    +0.222 C 
ATOM     16  ND2 ASN A   6      13.226  42.414  50.801  0.00  0.00    -0.329 N 
ATOM     17 HD21 ASN A   6      13.349  42.667  51.802  0.00  0.00    +0.145 HD
ATOM     18 HD22 ASN A   6      13.721  42.955  50.063  0.00  0.00    +0.145 HD
ATOM     19  OD1 ASN A   6      12.255  41.056  49.293  0.00  0.00    -0.275 OA
ENDBRANCH  14  15
ENDBRANCH  11  14
ENDBRANCH   8  11
ENDBRANCH   6   7
BRANCH   6  20
ATOM     20  CB  LYS A   5      10.251  44.975  49.675  0.00  0.00    +0.029 C 
BRANCH  20  21
ATOM     21  CG  LYS A   5       9.913  46.456  49.693  0.00  0.00    +0.000 C 
BRANCH  21  22
ATOM     22  CD  LYS A   5       8.718  46.750  48.800  0.00  0.00    -0.024 C 
BRANCH  22  23
ATOM     23  CE  LYS A   5       8.268  48.199  48.910  0.00  0.00    -0.086 C 
BRANCH  23  24
ATOM     24  NZ  LYS A   5       7.111  48.468  48.007  0.00  0.00    +0.380 N 
ATOM     25  HZ1 LYS A   5       6.317  47.850  48.270  0.00  0.00    -0.089 HD
ATOM     26  HZ2 LYS A   5       6.823  49.463  48.101  0.00  0.00    -0.089 HD
ATOM     27  HZ3 LYS A   5       7.389  48.278  47.023  0.00  0.00    -0.089 HD
ENDBRANCH  23  24
ENDBRANCH  22  23
ENDBRANCH  21  22
ENDBRANCH  20  21
ENDBRANCH   6  20
ENDBRANCH   3   6
ENDBRANCH   1   2
BRANCH   1  29
ATOM     28  C   ASP A   3       8.770  43.797  54.405  0.00  0.00    +0.241 C 
ATOM     29  N   LYS A   4       7.986  44.808  54.058  0.00  0.00    -0.297 N 
ATOM     30  H   LYS A   4       8.163  45.757  54.446  0.00  0.00    +0.150 HD
ATOM     31  O   ASP A   3       8.619  42.667  53.957  0.00  0.00    -0.273 OA
BRANCH  28  32
ATOM     32  CA  ASP A   3       9.883  44.086  55.421  0.00  0.00    +0.160 C 
BRANCH  32  35
ATOM     33  C   ILE A   2       8.493  43.937  57.421  0.00  0.00    +0.241 C 
ATOM     34  O   ILE A   2       8.052  45.073  57.281  0.00  0.00    -0.273 OA
ATOM     35  N   ASP A   3       9.395  43.406  56.609  0.00  0.00    -0.297 N 
ATOM     36  H   ASP A   3       9.770  42.462  56.831  0.00  0.00    +0.150 HD
BRANCH  33  37
ATOM     37  CA  ILE A   2       8.053  43.049  58.586  0.00  0.00    +0.148 C 
BRANCH  37  40
ATOM     38  C   ALA A   1       9.093  44.138  60.483  0.00  0.00    +0.238 C 
ATOM     39  O   ALA A   1      10.210  43.772  60.138  0.00  0.00    -0.274 OA
ATOM     40  N   ILE A   2       7.987  43.823  59.816  0.00  0.00    -0.297 N 
ATOM     41  H   ILE A   2       7.063  44.134  60.178  0.00  0.00    +0.150 HD
BRANCH  38  42
ATOM     42  CA  ALA A   1       8.907  44.989  61.728  0.00  0.00    +0.145 C 
ATOM     43  CB  ALA A   1       8.945  46.465  61.344  0.00  0.00    +0.028 C 
BRANCH  42  44
ATOM     44  N   ALA A   1       9.898  44.726  62.767  0.00  0.00    -0.238 NA
ATOM     45  H   ALA A   1      10.902  44.624  62.517  0.00  0.00    +0.142 HD
ENDBRANCH  42  44
ENDBRANCH  38  42
ENDBRANCH  37  40
BRANCH  37  46
ATOM     46  CB  ILE A   2       6.690  42.422  58.237  0.00  0.00    +0.027 C 
ATOM     47  CG2 ILE A   2       6.726  41.864  56.807  0.00  0.00    +0.002 C 
BRANCH  46  48
ATOM     48  CG1 ILE A   2       6.346  41.336  59.264  0.00  0.00    +0.002 C 
ATOM     49  CD1 ILE A   2       4.999  40.701  59.076  0.00  0.00    +0.000 C 
ENDBRANCH  46  48
ENDBRANCH  37  46
ENDBRANCH  33  37
ENDBRANCH  32  35
BRANCH  32  50
ATOM     50  CB  ASP A   3      11.202  43.442  54.976  0.00  0.00    +0.143 C 
BRANCH  50  51
ATOM     51  CG  ASP A   3      11.767  44.057  53.707  0.00  0.00    +0.367 C 
ATOM     52  OD2 ASP A   3      12.877  43.646  53.310  0.00  0.00    -0.246 OA
ATOM     53  OD1 ASP A   3      11.115  44.933  53.105  0.00  0.00    -0.246 OA
ENDBRANCH  50  51
ENDBRANCH  32  50
ENDBRANCH  28  32
ENDBRANCH   1  29
BRANCH   1  54
ATOM     54  CB  LYS A   4       5.938  45.809  53.168  0.00  0.00    +0.029 C 
BRANCH  54  55
ATOM     55  CG  LYS A   4       5.205  45.918  54.512  0.00  0.00    +0.000 C 
BRANCH  55  56
ATOM     56  CD  LYS A   4       4.230  47.089  54.575  0.00  0.00    -0.024 C 
BRANCH  56  57
ATOM     57  CE  LYS A   4       3.343  46.968  55.811  0.00  0.00    -0.086 C 
BRANCH  57  58
ATOM     58  NZ  LYS A   4       2.325  48.051  55.867  0.00  0.00    +0.380 N 
ATOM     59  HZ1 LYS A   4       1.743  47.934  56.721  0.00  0.00    -0.089 HD
ATOM     60  HZ2 LYS A   4       2.804  48.974  55.896  0.00  0.00    -0.089 HD
ATOM     61  HZ3 LYS A   4       1.719  48.000  55.023  0.00  0.00    -0.089 HD
ENDBRANCH  57  58
ENDBRANCH  56  57
ENDBRANCH  55  56
ENDBRANCH  54  55
ENDBRANCH   1  54
TORSDOF 28
REMARK  Name = ../refined-set-2016/2vyt/2vyt_pocket.pdb
REMARK  80 active torsions:
REMARK  status: ('A' for Active; 'I' for Inactive)
REMARK    1  A    between atoms: _1  and  _3
REMARK    2  A    between atoms: _3  and  _4
REMARK    3  A    between atoms: _7  and  _9
REMARK    4  A    between atoms: _9  and  _10
REMARK    5  A    between atoms: _9  and  _12
REMARK    6  A    between atoms: _12  and  _13
REMARK    7  A    between atoms: _16  and  _18
REMARK    8  A    between atoms: _18  and  _19
REMARK    9  A    between atoms: _18  and  _21
REMARK   10  A    between atoms: _21  and  _22
REMARK   11  A    between atoms: _25  and  _27
REMARK   12  A    between atoms: _27  and  _28
REMARK   13  A    between atoms: _27  and  _30
REMARK   14  A    between atoms: _30  and  _31
REMARK   15  A    between atoms: _31  and  _32
REMARK   16  A    between atoms: _32  and  _33
REMARK   17  A    between atoms: _33  and  _34
REMARK   18  A    between atoms: _38  and  _40
REMARK   19  A    between atoms: _40  and  _41
REMARK   20  A    between atoms: _40  and  _43
REMARK   21  A    between atoms: _43  and  _44
REMARK   22  A    between atoms: _44  and  _45
REMARK   23  A    between atoms: _45  and  _46
REMARK   24  A    between atoms: _46  and  _47
REMARK   25  A    between atoms: _51  and  _53
REMARK   26  A    between atoms: _53  and  _54
REMARK   27  A    between atoms: _53  and  _56
REMARK   28  A    between atoms: _56  and  _57
REMARK   29  A    between atoms: _62  and  _64
REMARK   30  A    between atoms: _64  and  _65
REMARK   31  A    between atoms: _64  and  _67
REMARK   32  A    between atoms: _67  and  _68
REMARK   33  A    between atoms: _71  and  _73
REMARK   34  A    between atoms: _73  and  _74
REMARK   35  A    between atoms: _73  and  _76
REMARK   36  A    between atoms: _76  and  _77
REMARK   37  A    between atoms: _80  and  _82
REMARK   38  A    between atoms: _82  and  _83
REMARK   39  A    between atoms: _82  and  _85
REMARK   40  A    between atoms: _88  and  _89
REMARK   41  A    between atoms: _94  and  _96
REMARK   42  A    between atoms: _96  and  _97
REMARK   43  A    between atoms: _96  and  _99
REMARK   44  A    between atoms: _99  and  _100
REMARK   45  A    between atoms: _103  and  _105
REMARK   46  A    between atoms: _105  and  _106
REMARK   47  A    between atoms: _105  and  _108
REMARK   48  A    between atoms: _108  and  _109
REMARK   49  A    between atoms: _115  and  _117
REMARK   50  A    between atoms: _117  and  _118
REMARK   51  A    between atoms: _117  and  _120
REMARK   52  A    between atoms: _120  and  _121
REMARK   53  A    between atoms: _124  and  _126
REMARK   54  A    between atoms: _126  and  _127
REMARK   55  A    between atoms: _129  and  _131
REMARK   56  A    between atoms: _131  and  _132
REMARK   57  A    between atoms: _131  and  _134
REMARK   58  A    between atoms: _134  and  _135
REMARK   59  A    between atoms: _145  and  _147
REMARK   60  A    between atoms: _147  and  _148
REMARK   61  A    between atoms: _147  and  _150
REMARK   62  A    between atoms: _150  and  _151
REMARK   63  A    between atoms: _153  and  _155
REMARK   64  A    between atoms: _155  and  _156
REMARK   65  A    between atoms: _159  and  _161
REMARK   66  A    between atoms: _161  and  _162
REMARK   67  A    between atoms: _161  and  _164
REMARK   68  A    between atoms: _164  and  _165
REMARK   69  A    between atoms: _171  and  _173
REMARK   70  A    between atoms: _173  and  _174
REMARK   71  A    between atoms: _173  and  _176
REMARK   72  A    between atoms: _176  and  _177
REMARK   73  A    between atoms: _180  and  _182
REMARK   74  A    between atoms: _182  and  _183
REMARK   75  A    between atoms: _182  and  _185
REMARK   76  A    between atoms: _185  and  _186
REMARK   77  A    between atoms: _186  and  _187
REMARK   78  A    between atoms: _193  and  _194
REMARK   79  A    between atoms: _199  and  _201
REMARK   80  A    between atoms: _201  and  _202
REMARK                            x       y       z     vdW  Elec       q    Type
REMARK                         _______ _______ _______ _____ _____    ______ ____
ROOT
ATOM      1  CA  ILE A   2      11.008  40.442  60.379  0.00  0.00    +0.148 C 
ENDROOT
BRANCH   1   3
ATOM      2  C   LEU A   1      11.022  39.863  58.001  0.00  0.00    +0.238 C 
ATOM      3  N   ILE A   2      11.372  39.578  59.252  0.00  0.00    -0.297 N 
ATOM      4  H   ILE A   2      11.922  38.715  59.437  0.00  0.00    +0.150 HD
ATOM      5  O   LEU A   1      10.304  40.806  57.700  0.00  0.00    -0.274 OA
BRANCH   2   6
ATOM      6  CA  LEU A   1      11.560  38.929  56.920  0.00  0.00    +0.145 C 
BRANCH   6   7
ATOM      7  N   LEU A   1      10.588  38.299  56.044  0.00  0.00    -0.238 NA
ATOM      8  H   LEU A   1      10.370  38.742  55.129  0.00  0.00    +0.142 HD
ENDBRANCH   6   7
BRANCH   6   9
ATOM      9  CB  LEU A   1      12.561  39.716  56.070  0.00  0.00    +0.026 C 
BRANCH   9  10
ATOM     10  CG  LEU A   1      13.287  38.988  54.934  0.00  0.00    +0.002 C 
ATOM     11  CD2 LEU A   1      14.046  37.793  55.485  0.00  0.00    +0.000 C 
ATOM     12  CD1 LEU A   1      14.239  39.962  54.251  0.00  0.00    +0.000 C 
ENDBRANCH   9  10
ENDBRANCH   6   9
ENDBRANCH   2   6
ENDBRANCH   1   3
BRANCH   1  13
ATOM     13  C   ILE A   2      12.368  40.988  60.795  0.00  0.00    +0.241 C 
ATOM     14  O   ILE A   2      13.298  40.216  61.073  0.00  0.00    -0.273 OA
ATOM     15  N   CYS A   3      12.481  42.312  60.847  0.00  0.00    -0.296 N 
ATOM     16  H   CYS A   3      11.642  42.907  60.690  0.00  0.00    +0.150 HD
BRANCH  15  17
ATOM     17  CA  CYS A   3      13.765  42.936  61.121  0.00  0.00    +0.161 C 
BRANCH  17  18
ATOM     18  C   CYS A   3      13.782  44.008  62.205  0.00  0.00    +0.245 C 
ATOM     19  N   PRO A   4      14.959  44.239  62.814  0.00  0.00    -0.273 N 
ATOM     20  CA  PRO A   4      15.084  45.268  63.854  0.00  0.00    +0.140 C 
ATOM     21  CB  PRO A   4      16.551  45.174  64.251  0.00  0.00    +0.030 C 
ATOM     22  CG  PRO A   4      16.819  43.683  64.106  0.00  0.00    +0.024 C 
ATOM     23  CD  PRO A   4      16.162  43.383  62.770  0.00  0.00    +0.094 C 
ATOM     24  O   CYS A   3      12.760  44.616  62.503  0.00  0.00    -0.273 OA
BRANCH  20  25
ATOM     25  C   PRO A   4      14.749  46.580  63.143  0.00  0.00    +0.227 C 
ATOM     26  O   PRO A   4      15.259  46.861  62.052  0.00  0.00    -0.286 OA
ENDBRANCH  20  25
ENDBRANCH  17  18
BRANCH  17  27
ATOM     27  CB  CYS A   3      14.270  43.575  59.822  0.00  0.00    +0.098 C 
ATOM     28  SG  CYS A   3      13.783  42.738  58.251  0.00  0.00    -0.080 S 
ENDBRANCH  17  27
ENDBRANCH  15  17
ENDBRANCH   1  13
BRANCH   1  29
ATOM     29  CB  ILE A   2      10.375  39.663  61.521  0.00  0.00    +0.027 C 
ATOM     30  CG2 ILE A   2      10.190  40.572  62.739  0.00  0.00    +0.002 C 
BRANCH  29  31
ATOM     31  CG1 ILE A   2       9.013  39.128  61.068  0.00  0.00    +0.002 C 
ATOM     32  CD1 ILE A   2       8.381  38.187  62.051  0.00  0.00    +0.000 C 
ENDBRANCH  29  31
ENDBRANCH   1  29
TORSDOF 12
REMARK  Name = ../refined-set-2016/2vyt/2vyt_pocket.pdb
REMARK  80 active torsions:
REMARK  status: ('A' for Active; 'I' for Inactive)
REMARK    1  A    between atoms: _1  and  _3
REMARK    2  A    between atoms: _3  and  _4
REMARK    3  A    between atoms: _7  and  _9
REMARK    4  A    between atoms: _9  and  _10
REMARK    5  A    between atoms: _9  and  _12
REMARK    6  A    between atoms: _12  and  _13
REMARK    7  A    between atoms: _16  and  _18
REMARK    8  A    between atoms: _18  and  _19
REMARK    9  A    between atoms: _18  and  _21
REMARK   10  A    between atoms: _21  and  _22
REMARK   11  A    between atoms: _25  and  _27
REMARK   12  A    between atoms: _27  and  _28
REMARK   13  A    between atoms: _27  and  _30
REMARK   14  A    between atoms: _30  and  _31
REMARK   15  A    between atoms: _31  and  _32
REMARK   16  A    between atoms: _32  and  _33
REMARK   17  A    between atoms: _33  and  _34
REMARK   18  A    between atoms: _38  and  _40
REMARK   19  A    between atoms: _40  and  _41
REMARK   20  A    between atoms: _40  and  _43
REMARK   21  A    between atoms: _43  and  _44
REMARK   22  A    between atoms: _44  and  _45
REMARK   23  A    between atoms: _45  and  _46
REMARK   24  A    between atoms: _46  and  _47
REMARK   25  A    between atoms: _51  and  _53
REMARK   26  A    between atoms: _53  and  _54
REMARK   27  A    between atoms: _53  and  _56
REMARK   28  A    between atoms: _56  and  _57
REMARK   29  A    between atoms: _62  and  _64
REMARK   30  A    between atoms: _64  and  _65
REMARK   31  A    between atoms: _64  and  _67
REMARK   32  A    between atoms: _67  and  _68
REMARK   33  A    between atoms: _71  and  _73
REMARK   34  A    between atoms: _73  and  _74
REMARK   35  A    between atoms: _73  and  _76
REMARK   36  A    between atoms: _76  and  _77
REMARK   37  A    between atoms: _80  and  _82
REMARK   38  A    between atoms: _82  and  _83
REMARK   39  A    between atoms: _82  and  _85
REMARK   40  A    between atoms: _88  and  _89
REMARK   41  A    between atoms: _94  and  _96
REMARK   42  A    between atoms: _96  and  _97
REMARK   43  A    between atoms: _96  and  _99
REMARK   44  A    between atoms: _99  and  _100
REMARK   45  A    between atoms: _103  and  _105
REMARK   46  A    between atoms: _105  and  _106
REMARK   47  A    between atoms: _105  and  _108
REMARK   48  A    between atoms: _108  and  _109
REMARK   49  A    between atoms: _115  and  _117
REMARK   50  A    between atoms: _117  and  _118
REMARK   51  A    between atoms: _117  and  _120
REMARK   52  A    between atoms: _120  and  _121
REMARK   53  A    between atoms: _124  and  _126
REMARK   54  A    between atoms: _126  and  _127
REMARK   55  A    between atoms: _129  and  _131
REMARK   56  A    between atoms: _131  and  _132
REMARK   57  A    between atoms: _131  and  _134
REMARK   58  A    between atoms: _134  and  _135
REMARK   59  A    between atoms: _145  and  _147
REMARK   60  A    between atoms: _147  and  _148
REMARK   61  A    between atoms: _147  and  _150
REMARK   62  A    between atoms: _150  and  _151
REMARK   63  A    between atoms: _153  and  _155
REMARK   64  A    between atoms: _155  and  _156
REMARK   65  A    between atoms: _159  and  _161
REMARK   66  A    between atoms: _161  and  _162
REMARK   67  A    between atoms: _161  and  _164
REMARK   68  A    between atoms: _164  and  _165
REMARK   69  A    between atoms: _171  and  _173
REMARK   70  A    between atoms: _173  and  _174
REMARK   71  A    between atoms: _173  and  _176
REMARK   72  A    between atoms: _176  and  _177
REMARK   73  A    between atoms: _180  and  _182
REMARK   74  A    between atoms: _182  and  _183
REMARK   75  A    between atoms: _182  and  _185
REMARK   76  A    between atoms: _185  and  _186
REMARK   77  A    between atoms: _186  and  _187
REMARK   78  A    between atoms: _193  and  _194
REMARK   79  A    between atoms: _199  and  _201
REMARK   80  A    between atoms: _201  and  _202
REMARK                            x       y       z     vdW  Elec       q    Type
REMARK                         _______ _______ _______ _____ _____    ______ ____
ROOT
ATOM      1  C   ASP A   3      19.290  48.815  60.116  0.00  0.00    +0.241 C 
ATOM      2  O   ASP A   3      19.208  47.618  59.837  0.00  0.00    -0.273 OA
ATOM      3  N   GLY A   4      20.278  49.595  59.688  0.00  0.00    -0.295 N 
ATOM      4  H   GLY A   4      20.290  50.602  59.947  0.00  0.00    +0.150 HD
ENDROOT
BRANCH   3   5
ATOM      5  CA  GLY A   4      21.341  49.051  58.862  0.00  0.00    +0.176 C 
BRANCH   5   6
ATOM      6  C   GLY A   4      21.038  48.988  57.381  0.00  0.00    +0.243 C 
ATOM      7  N   TRP A   5      19.831  49.387  56.993  0.00  0.00    -0.297 N 
ATOM      8  H   TRP A   5      19.148  49.712  57.707  0.00  0.00    +0.150 HD
ATOM      9  O   GLY A   4      21.888  48.567  56.596  0.00  0.00    -0.273 OA
BRANCH   7  10
ATOM     10  CA  TRP A   5      19.445  49.378  55.584  0.00  0.00    +0.153 C 
BRANCH  10  11
ATOM     11  C   TRP A   5      19.094  50.768  55.110  0.00  0.00    +0.241 C 
ATOM     12  O   TRP A   5      18.834  51.656  55.916  0.00  0.00    -0.273 OA
ATOM     13  N   SER A   6      19.077  50.953  53.795  0.00  0.00    -0.296 N 
ATOM     14  H   SER A   6      19.300  50.158  53.162  0.00  0.00    +0.150 HD
BRANCH  13  15
ATOM     15  CA  SER A   6      18.751  52.252  53.228  0.00  0.00    +0.166 C 
BRANCH  15  16
ATOM     16  CB  SER A   6      17.252  52.505  53.329  0.00  0.00    +0.229 C 
ATOM     17  OG  SER A   6      16.471  51.582  53.568  0.00  0.00    -0.286 OA
ENDBRANCH  15  16
BRANCH  15  18
ATOM     18  C   SER A   6      19.181  52.317  51.763  0.00  0.00    +0.165 C 
BRANCH  18  19
ATOM     19  O   SER A   6      18.382  51.470  50.957  0.00  0.00    -0.380 OA
ATOM     20  H   SER A   6      18.682  51.532  50.016  0.00  0.00    +0.211 HD
ENDBRANCH  18  19
ENDBRANCH  15  18
ENDBRANCH  13  15
ENDBRANCH  10  11
BRANCH  10  21
ATOM     21  CB  TRP A   5      18.250  48.454  55.347  0.00  0.00    +0.057 C 
BRANCH  21  22
ATOM     22  CG  TRP A   5      18.586  47.026  55.546  0.00  0.00    -0.002 A 
ATOM     23  CD1 TRP A   5      18.542  46.329  56.716  0.00  0.00    +0.068 A 
ATOM     24  NE1 TRP A   5      18.990  45.045  56.518  0.00  0.00    -0.352 N 
ATOM     25  HE1 TRP A   5      19.059  44.309  57.250  0.00  0.00    +0.166 HD
ATOM     26  CE2 TRP A   5      19.331  44.892  55.199  0.00  0.00    +0.056 A 
ATOM     27  CZ2 TRP A   5      19.834  43.775  54.519  0.00  0.00    +0.017 A 
ATOM     28  CH2 TRP A   5      20.093  43.914  53.178  0.00  0.00    +0.001 A 
ATOM     29  CZ3 TRP A   5      19.863  45.128  52.507  0.00  0.00    +0.000 A 
ATOM     30  CE3 TRP A   5      19.361  46.237  53.185  0.00  0.00    +0.001 A 
ATOM     31  CD2 TRP A   5      19.089  46.123  54.556  0.00  0.00    +0.013 A 
ENDBRANCH  21  22
ENDBRANCH  10  21
ENDBRANCH   7  10
ENDBRANCH   5   6
ENDBRANCH   3   5
BRANCH   1  32
ATOM     32  CA  ASP A   3      18.243  49.476  61.008  0.00  0.00    +0.160 C 
BRANCH  32  34
ATOM     33  C   PHE A   2      16.482  49.648  59.310  0.00  0.00    +0.241 C 
ATOM     34  N   ASP A   3      16.881  49.279  60.523  0.00  0.00    -0.297 N 
ATOM     35  H   ASP A   3      16.190  48.829  61.156  0.00  0.00    +0.150 HD
ATOM     36  O   PHE A   2      17.228  50.166  58.472  0.00  0.00    -0.273 OA
BRANCH  33  37
ATOM     37  CA  PHE A   2      15.008  49.387  59.006  0.00  0.00    +0.153 C 
BRANCH  37  40
ATOM     38  C   THR A   1      13.572  51.257  59.566  0.00  0.00    +0.241 C 
ATOM     39  O   THR A   1      13.524  50.897  60.735  0.00  0.00    -0.274 OA
ATOM     40  N   PHE A   2      14.266  50.594  58.645  0.00  0.00    -0.297 N 
ATOM     41  H   PHE A   2      14.281  50.936  57.663  0.00  0.00    +0.150 HD
BRANCH  38  42
ATOM     42  CA  THR A   1      12.814  52.496  59.110  0.00  0.00    +0.172 C 
BRANCH  42  43
ATOM     43  CB  THR A   1      13.644  53.748  59.506  0.00  0.00    +0.135 C 
ATOM     44  CG2 THR A   1      12.848  55.012  59.249  0.00  0.00    +0.034 C 
BRANCH  43  45
ATOM     45  OG1 THR A   1      13.998  53.686  60.894  0.00  0.00    -0.383 OA
ATOM     46  HG1 THR A   1      14.537  52.872  61.060  0.00  0.00    +0.210 HD
ENDBRANCH  43  45
ENDBRANCH  42  43
BRANCH  42  47
ATOM     47  N   THR A   1      11.493  52.472  59.746  0.00  0.00    -0.236 NA
ATOM     48  H   THR A   1      11.437  52.404  60.782  0.00  0.00    +0.142 HD
ENDBRANCH  42  47
ENDBRANCH  38  42
ENDBRANCH  37  40
BRANCH  37  49
ATOM     49  CB  PHE A   2      14.853  48.335  57.905  0.00  0.00    +0.055 C 
BRANCH  49  50
ATOM     50  CG  PHE A   2      13.446  47.828  57.771  0.00  0.00    -0.020 A 
ATOM     51  CD2 PHE A   2      13.037  46.692  58.463  0.00  0.00    -0.004 A 
ATOM     52  CE2 PHE A   2      11.710  46.258  58.413  0.00  0.00    -0.000 A 
ATOM     53  CZ  PHE A   2      10.780  46.962  57.667  0.00  0.00    -0.000 A 
ATOM     54  CE1 PHE A   2      11.173  48.097  56.967  0.00  0.00    -0.000 A 
ATOM     55  CD1 PHE A   2      12.508  48.526  57.021  0.00  0.00    -0.004 A 
ENDBRANCH  49  50
ENDBRANCH  37  49
ENDBRANCH  33  37
ENDBRANCH  32  34
BRANCH  32  56
ATOM     56  CB  ASP A   3      18.386  48.898  62.416  0.00  0.00    +0.143 C 
BRANCH  56  57
ATOM     57  CG  ASP A   3      17.518  49.606  63.444  0.00  0.00    +0.367 C 
ATOM     58  OD2 ASP A   3      17.808  49.461  64.647  0.00  0.00    -0.246 OA
ATOM     59  OD1 ASP A   3      16.546  50.286  63.065  0.00  0.00    -0.246 OA
ENDBRANCH  56  57
ENDBRANCH  32  56
ENDBRANCH   1  32
TORSDOF 22
REMARK  Name = ../refined-set-2016/2vyt/2vyt_pocket.pdb
REMARK  80 active torsions:
REMARK  status: ('A' for Active; 'I' for Inactive)
REMARK    1  A    between atoms: _1  and  _3
REMARK    2  A    between atoms: _3  and  _4
REMARK    3  A    between atoms: _7  and  _9
REMARK    4  A    between atoms: _9  and  _10
REMARK    5  A    between atoms: _9  and  _12
REMARK    6  A    between atoms: _12  and  _13
REMARK    7  A    between atoms: _16  and  _18
REMARK    8  A    between atoms: _18  and  _19
REMARK    9  A    between atoms: _18  and  _21
REMARK   10  A    between atoms: _21  and  _22
REMARK   11  A    between atoms: _25  and  _27
REMARK   12  A    between atoms: _27  and  _28
REMARK   13  A    between atoms: _27  and  _30
REMARK   14  A    between atoms: _30  and  _31
REMARK   15  A    between atoms: _31  and  _32
REMARK   16  A    between atoms: _32  and  _33
REMARK   17  A    between atoms: _33  and  _34
REMARK   18  A    between atoms: _38  and  _40
REMARK   19  A    between atoms: _40  and  _41
REMARK   20  A    between atoms: _40  and  _43
REMARK   21  A    between atoms: _43  and  _44
REMARK   22  A    between atoms: _44  and  _45
REMARK   23  A    between atoms: _45  and  _46
REMARK   24  A    between atoms: _46  and  _47
REMARK   25  A    between atoms: _51  and  _53
REMARK   26  A    between atoms: _53  and  _54
REMARK   27  A    between atoms: _53  and  _56
REMARK   28  A    between atoms: _56  and  _57
REMARK   29  A    between atoms: _62  and  _64
REMARK   30  A    between atoms: _64  and  _65
REMARK   31  A    between atoms: _64  and  _67
REMARK   32  A    between atoms: _67  and  _68
REMARK   33  A    between atoms: _71  and  _73
REMARK   34  A    between atoms: _73  and  _74
REMARK   35  A    between atoms: _73  and  _76
REMARK   36  A    between atoms: _76  and  _77
REMARK   37  A    between atoms: _80  and  _82
REMARK   38  A    between atoms: _82  and  _83
REMARK   39  A    between atoms: _82  and  _85
REMARK   40  A    between atoms: _88  and  _89
REMARK   41  A    between atoms: _94  and  _96
REMARK   42  A    between atoms: _96  and  _97
REMARK   43  A    between atoms: _96  and  _99
REMARK   44  A    between atoms: _99  and  _100
REMARK   45  A    between atoms: _103  and  _105
REMARK   46  A    between atoms: _105  and  _106
REMARK   47  A    between atoms: _105  and  _108
REMARK   48  A    between atoms: _108  and  _109
REMARK   49  A    between atoms: _115  and  _117
REMARK   50  A    between atoms: _117  and  _118
REMARK   51  A    between atoms: _117  and  _120
REMARK   52  A    between atoms: _120  and  _121
REMARK   53  A    between atoms: _124  and  _126
REMARK   54  A    between atoms: _126  and  _127
REMARK   55  A    between atoms: _129  and  _131
REMARK   56  A    between atoms: _131  and  _132
REMARK   57  A    between atoms: _131  and  _134
REMARK   58  A    between atoms: _134  and  _135
REMARK   59  A    between atoms: _145  and  _147
REMARK   60  A    between atoms: _147  and  _148
REMARK   61  A    between atoms: _147  and  _150
REMARK   62  A    between atoms: _150  and  _151
REMARK   63  A    between atoms: _153  and  _155
REMARK   64  A    between atoms: _155  and  _156
REMARK   65  A    between atoms: _159  and  _161
REMARK   66  A    between atoms: _161  and  _162
REMARK   67  A    between atoms: _161  and  _164
REMARK   68  A    between atoms: _164  and  _165
REMARK   69  A    between atoms: _171  and  _173
REMARK   70  A    between atoms: _173  and  _174
REMARK   71  A    between atoms: _173  and  _176
REMARK   72  A    between atoms: _176  and  _177
REMARK   73  A    between atoms: _180  and  _182
REMARK   74  A    between atoms: _182  and  _183
REMARK   75  A    between atoms: _182  and  _185
REMARK   76  A    between atoms: _185  and  _186
REMARK   77  A    between atoms: _186  and  _187
REMARK   78  A    between atoms: _193  and  _194
REMARK   79  A    between atoms: _199  and  _201
REMARK   80  A    between atoms: _201  and  _202
REMARK                            x       y       z     vdW  Elec       q    Type
REMARK                         _______ _______ _______ _____ _____    ______ ____
ROOT
ATOM      1  CA  PHE A   2      12.679  49.667  52.589  0.00  0.00    +0.153 C 
ENDROOT
BRANCH   1   3
ATOM      2  C   ALA A   1      13.554  50.955  50.738  0.00  0.00    +0.238 C 
ATOM      3  N   PHE A   2      13.652  50.583  52.010  0.00  0.00    -0.297 N 
ATOM      4  H   PHE A   2      14.429  50.949  52.596  0.00  0.00    +0.150 HD
ATOM      5  O   ALA A   1      12.658  50.549  49.995  0.00  0.00    -0.274 OA
BRANCH   2   6
ATOM      6  CA  ALA A   1      14.621  51.918  50.218  0.00  0.00    +0.145 C 
ATOM      7  CB  ALA A   1      15.647  51.148  49.394  0.00  0.00    +0.028 C 
BRANCH   6   8
ATOM      8  N   ALA A   1      15.293  52.655  51.286  0.00  0.00    -0.238 NA
ATOM      9  H   ALA A   1      16.327  52.586  51.369  0.00  0.00    +0.142 HD
ENDBRANCH   6   8
ENDBRANCH   2   6
ENDBRANCH   1   3
BRANCH   1  10
ATOM     10  C   PHE A   2      11.727  50.336  53.576  0.00  0.00    +0.241 C 
ATOM     11  O   PHE A   2      10.910  49.664  54.203  0.00  0.00    -0.273 OA
ATOM     12  N   ASP A   3      11.831  51.654  53.712  0.00  0.00    -0.298 N 
ATOM     13  H   ASP A   3      12.545  52.168  53.157  0.00  0.00    +0.150 HD
BRANCH  12  14
ATOM     14  CA  ASP A   3      10.964  52.397  54.624  0.00  0.00    +0.148 C 
BRANCH  14  15
ATOM     15  C   ASP A   3       9.517  52.335  54.164  0.00  0.00    +0.227 C 
ATOM     16  O   ASP A   3       9.241  52.070  53.001  0.00  0.00    -0.286 OA
ENDBRANCH  14  15
BRANCH  14  17
ATOM     17  CB  ASP A   3      11.380  53.871  54.678  0.00  0.00    +0.142 C 
BRANCH  17  18
ATOM     18  CG  ASP A   3      12.659  54.096  55.446  0.00  0.00    +0.367 C 
ATOM     19  OD2 ASP A   3      12.919  55.259  55.814  0.00  0.00    -0.246 OA
ATOM     20  OD1 ASP A   3      13.405  53.121  55.671  0.00  0.00    -0.246 OA
ENDBRANCH  17  18
ENDBRANCH  14  17
ENDBRANCH  12  14
ENDBRANCH   1  10
BRANCH   1  21
ATOM     21  CB  PHE A   2      13.398  48.500  53.271  0.00  0.00    +0.055 C 
BRANCH  21  22
ATOM     22  CG  PHE A   2      14.301  47.730  52.349  0.00  0.00    -0.020 A 
ATOM     23  CD2 PHE A   2      15.636  48.097  52.193  0.00  0.00    -0.004 A 
ATOM     24  CE2 PHE A   2      16.468  47.409  51.308  0.00  0.00    -0.000 A 
ATOM     25  CZ  PHE A   2      15.962  46.340  50.568  0.00  0.00    -0.000 A 
ATOM     26  CE1 PHE A   2      14.631  45.962  50.715  0.00  0.00    -0.000 A 
ATOM     27  CD1 PHE A   2      13.806  46.659  51.607  0.00  0.00    -0.004 A 
ENDBRANCH  21  22
ENDBRANCH   1  21
TORSDOF 10
REMARK  Name = ../refined-set-2016/2vyt/2vyt_pocket.pdb
REMARK  80 active torsions:
REMARK  status: ('A' for Active; 'I' for Inactive)
REMARK    1  A    between atoms: _1  and  _3
REMARK    2  A    between atoms: _3  and  _4
REMARK    3  A    between atoms: _7  and  _9
REMARK    4  A    between atoms: _9  and  _10
REMARK    5  A    between atoms: _9  and  _12
REMARK    6  A    between atoms: _12  and  _13
REMARK    7  A    between atoms: _16  and  _18
REMARK    8  A    between atoms: _18  and  _19
REMARK    9  A    between atoms: _18  and  _21
REMARK   10  A    between atoms: _21  and  _22
REMARK   11  A    between atoms: _25  and  _27
REMARK   12  A    between atoms: _27  and  _28
REMARK   13  A    between atoms: _27  and  _30
REMARK   14  A    between atoms: _30  and  _31
REMARK   15  A    between atoms: _31  and  _32
REMARK   16  A    between atoms: _32  and  _33
REMARK   17  A    between atoms: _33  and  _34
REMARK   18  A    between atoms: _38  and  _40
REMARK   19  A    between atoms: _40  and  _41
REMARK   20  A    between atoms: _40  and  _43
REMARK   21  A    between atoms: _43  and  _44
REMARK   22  A    between atoms: _44  and  _45
REMARK   23  A    between atoms: _45  and  _46
REMARK   24  A    between atoms: _46  and  _47
REMARK   25  A    between atoms: _51  and  _53
REMARK   26  A    between atoms: _53  and  _54
REMARK   27  A    between atoms: _53  and  _56
REMARK   28  A    between atoms: _56  and  _57
REMARK   29  A    between atoms: _62  and  _64
REMARK   30  A    between atoms: _64  and  _65
REMARK   31  A    between atoms: _64  and  _67
REMARK   32  A    between atoms: _67  and  _68
REMARK   33  A    between atoms: _71  and  _73
REMARK   34  A    between atoms: _73  and  _74
REMARK   35  A    between atoms: _73  and  _76
REMARK   36  A    between atoms: _76  and  _77
REMARK   37  A    between atoms: _80  and  _82
REMARK   38  A    between atoms: _82  and  _83
REMARK   39  A    between atoms: _82  and  _85
REMARK   40  A    between atoms: _88  and  _89
REMARK   41  A    between atoms: _94  and  _96
REMARK   42  A    between atoms: _96  and  _97
REMARK   43  A    between atoms: _96  and  _99
REMARK   44  A    between atoms: _99  and  _100
REMARK   45  A    between atoms: _103  and  _105
REMARK   46  A    between atoms: _105  and  _106
REMARK   47  A    between atoms: _105  and  _108
REMARK   48  A    between atoms: _108  and  _109
REMARK   49  A    between atoms: _115  and  _117
REMARK   50  A    between atoms: _117  and  _118
REMARK   51  A    between atoms: _117  and  _120
REMARK   52  A    between atoms: _120  and  _121
REMARK   53  A    between atoms: _124  and  _126
REMARK   54  A    between atoms: _126  and  _127
REMARK   55  A    between atoms: _129  and  _131
REMARK   56  A    between atoms: _131  and  _132
REMARK   57  A    between atoms: _131  and  _134
REMARK   58  A    between atoms: _134  and  _135
REMARK   59  A    between atoms: _145  and  _147
REMARK   60  A    between atoms: _147  and  _148
REMARK   61  A    between atoms: _147  and  _150
REMARK   62  A    between atoms: _150  and  _151
REMARK   63  A    between atoms: _153  and  _155
REMARK   64  A    between atoms: _155  and  _156
REMARK   65  A    between atoms: _159  and  _161
REMARK   66  A    between atoms: _161  and  _162
REMARK   67  A    between atoms: _161  and  _164
REMARK   68  A    between atoms: _164  and  _165
REMARK   69  A    between atoms: _171  and  _173
REMARK   70  A    between atoms: _173  and  _174
REMARK   71  A    between atoms: _173  and  _176
REMARK   72  A    between atoms: _176  and  _177
REMARK   73  A    between atoms: _180  and  _182
REMARK   74  A    between atoms: _182  and  _183
REMARK   75  A    between atoms: _182  and  _185
REMARK   76  A    between atoms: _185  and  _186
REMARK   77  A    between atoms: _186  and  _187
REMARK   78  A    between atoms: _193  and  _194
REMARK   79  A    between atoms: _199  and  _201
REMARK   80  A    between atoms: _201  and  _202
REMARK                            x       y       z     vdW  Elec       q    Type
REMARK                         _______ _______ _______ _____ _____    ______ ____
ROOT
ATOM      1  CA  GLN A   1      16.873  39.174  60.915  0.00  0.00    +0.145 C 
ENDROOT
BRANCH   1   2
ATOM      2  C   GLN A   1      17.879  40.018  61.693  0.00  0.00    +0.241 C 
ATOM      3  O   GLN A   1      17.520  40.721  62.645  0.00  0.00    -0.273 OA
ATOM      4  N   PRO A   2      19.164  39.926  61.326  0.00  0.00    -0.273 N 
ATOM      5  CA  PRO A   2      20.148  40.736  62.042  0.00  0.00    +0.140 C 
ATOM      6  CB  PRO A   2      21.459  40.009  61.761  0.00  0.00    +0.030 C 
ATOM      7  CG  PRO A   2      21.247  39.534  60.346  0.00  0.00    +0.024 C 
ATOM      8  CD  PRO A   2      19.825  38.988  60.400  0.00  0.00    +0.094 C 
BRANCH   5   9
ATOM      9  C   PRO A   2      20.106  42.109  61.382  0.00  0.00    +0.227 C 
ATOM     10  O   PRO A   2      19.670  42.234  60.239  0.00  0.00    -0.286 OA
ENDBRANCH   5   9
ENDBRANCH   1   2
BRANCH   1  11
ATOM     11  N   GLN A   1      15.709  38.917  61.740  0.00  0.00    -0.238 NA
ATOM     12  H   GLN A   1      14.805  39.378  61.513  0.00  0.00    +0.142 HD
ENDBRANCH   1  11
BRANCH   1  13
ATOM     13  CB  GLN A   1      16.475  39.931  59.651  0.00  0.00    +0.036 C 
BRANCH  13  14
ATOM     14  CG  GLN A   1      15.527  39.167  58.733  0.00  0.00    +0.087 C 
BRANCH  14  15
ATOM     15  CD  GLN A   1      16.157  37.894  58.192  0.00  0.00    +0.219 C 
ATOM     16  NE2 GLN A   1      15.565  36.747  58.522  0.00  0.00    -0.329 N 
ATOM     17 HE21 GLN A   1      14.709  36.755  59.112  0.00  0.00    +0.145 HD
ATOM     18 HE22 GLN A   1      15.959  35.844  58.189  0.00  0.00    +0.145 HD
ATOM     19  OE1 GLN A   1      17.168  37.943  57.499  0.00  0.00    -0.275 OA
ENDBRANCH  14  15
ENDBRANCH  13  14
ENDBRANCH   1  13
TORSDOF 6
REMARK  Name = ../refined-set-2016/2vyt/2vyt_pocket.pdb
REMARK  80 active torsions:
REMARK  status: ('A' for Active; 'I' for Inactive)
REMARK    1  A    between atoms: _1  and  _3
REMARK    2  A    between atoms: _3  and  _4
REMARK    3  A    between atoms: _7  and  _9
REMARK    4  A    between atoms: _9  and  _10
REMARK    5  A    between atoms: _9  and  _12
REMARK    6  A    between atoms: _12  and  _13
REMARK    7  A    between atoms: _16  and  _18
REMARK    8  A    between atoms: _18  and  _19
REMARK    9  A    between atoms: _18  and  _21
REMARK   10  A    between atoms: _21  and  _22
REMARK   11  A    between atoms: _25  and  _27
REMARK   12  A    between atoms: _27  and  _28
REMARK   13  A    between atoms: _27  and  _30
REMARK   14  A    between atoms: _30  and  _31
REMARK   15  A    between atoms: _31  and  _32
REMARK   16  A    between atoms: _32  and  _33
REMARK   17  A    between atoms: _33  and  _34
REMARK   18  A    between atoms: _38  and  _40
REMARK   19  A    between atoms: _40  and  _41
REMARK   20  A    between atoms: _40  and  _43
REMARK   21  A    between atoms: _43  and  _44
REMARK   22  A    between atoms: _44  and  _45
REMARK   23  A    between atoms: _45  and  _46
REMARK   24  A    between atoms: _46  and  _47
REMARK   25  A    between atoms: _51  and  _53
REMARK   26  A    between atoms: _53  and  _54
REMARK   27  A    between atoms: _53  and  _56
REMARK   28  A    between atoms: _56  and  _57
REMARK   29  A    between atoms: _62  and  _64
REMARK   30  A    between atoms: _64  and  _65
REMARK   31  A    between atoms: _64  and  _67
REMARK   32  A    between atoms: _67  and  _68
REMARK   33  A    between atoms: _71  and  _73
REMARK   34  A    between atoms: _73  and  _74
REMARK   35  A    between atoms: _73  and  _76
REMARK   36  A    between atoms: _76  and  _77
REMARK   37  A    between atoms: _80  and  _82
REMARK   38  A    between atoms: _82  and  _83
REMARK   39  A    between atoms: _82  and  _85
REMARK   40  A    between atoms: _88  and  _89
REMARK   41  A    between atoms: _94  and  _96
REMARK   42  A    between atoms: _96  and  _97
REMARK   43  A    between atoms: _96  and  _99
REMARK   44  A    between atoms: _99  and  _100
REMARK   45  A    between atoms: _103  and  _105
REMARK   46  A    between atoms: _105  and  _106
REMARK   47  A    between atoms: _105  and  _108
REMARK   48  A    between atoms: _108  and  _109
REMARK   49  A    between atoms: _115  and  _117
REMARK   50  A    between atoms: _117  and  _118
REMARK   51  A    between atoms: _117  and  _120
REMARK   52  A    between atoms: _120  and  _121
REMARK   53  A    between atoms: _124  and  _126
REMARK   54  A    between atoms: _126  and  _127
REMARK   55  A    between atoms: _129  and  _131
REMARK   56  A    between atoms: _131  and  _132
REMARK   57  A    between atoms: _131  and  _134
REMARK   58  A    between atoms: _134  and  _135
REMARK   59  A    between atoms: _145  and  _147
REMARK   60  A    between atoms: _147  and  _148
REMARK   61  A    between atoms: _147  and  _150
REMARK   62  A    between atoms: _150  and  _151
REMARK   63  A    between atoms: _153  and  _155
REMARK   64  A    between atoms: _155  and  _156
REMARK   65  A    between atoms: _159  and  _161
REMARK   66  A    between atoms: _161  and  _162
REMARK   67  A    between atoms: _161  and  _164
REMARK   68  A    between atoms: _164  and  _165
REMARK   69  A    between atoms: _171  and  _173
REMARK   70  A    between atoms: _173  and  _174
REMARK   71  A    between atoms: _173  and  _176
REMARK   72  A    between atoms: _176  and  _177
REMARK   73  A    between atoms: _180  and  _182
REMARK   74  A    between atoms: _182  and  _183
REMARK   75  A    between atoms: _182  and  _185
REMARK   76  A    between atoms: _185  and  _186
REMARK   77  A    between atoms: _186  and  _187
REMARK   78  A    between atoms: _193  and  _194
REMARK   79  A    between atoms: _199  and  _201
REMARK   80  A    between atoms: _201  and  _202
REMARK                            x       y       z     vdW  Elec       q    Type
REMARK                         _______ _______ _______ _____ _____    ______ ____
ROOT
ATOM      1  CA  GLY A   1      22.025  45.414  58.138  0.00  0.00    +0.156 C 
ENDROOT
BRANCH   1   2
ATOM      2  N   GLY A   1      21.198  45.373  59.328  0.00  0.00    -0.238 NA
ATOM      3  H   GLY A   1      20.428  46.061  59.447  0.00  0.00    +0.142 HD
ENDBRANCH   1   2
BRANCH   1   4
ATOM      4  C   GLY A   1      23.365  46.063  58.445  0.00  0.00    +0.226 C 
ATOM      5  O   GLY A   1      23.667  46.339  59.608  0.00  0.00    -0.287 OA
ENDBRANCH   1   4
TORSDOF 2
REMARK  Name = ../refined-set-2016/2vyt/2vyt_pocket.pdb
REMARK  80 active torsions:
REMARK  status: ('A' for Active; 'I' for Inactive)
REMARK    1  A    between atoms: _1  and  _3
REMARK    2  A    between atoms: _3  and  _4
REMARK    3  A    between atoms: _7  and  _9
REMARK    4  A    between atoms: _9  and  _10
REMARK    5  A    between atoms: _9  and  _12
REMARK    6  A    between atoms: _12  and  _13
REMARK    7  A    between atoms: _16  and  _18
REMARK    8  A    between atoms: _18  and  _19
REMARK    9  A    between atoms: _18  and  _21
REMARK   10  A    between atoms: _21  and  _22
REMARK   11  A    between atoms: _25  and  _27
REMARK   12  A    between atoms: _27  and  _28
REMARK   13  A    between atoms: _27  and  _30
REMARK   14  A    between atoms: _30  and  _31
REMARK   15  A    between atoms: _31  and  _32
REMARK   16  A    between atoms: _32  and  _33
REMARK   17  A    between atoms: _33  and  _34
REMARK   18  A    between atoms: _38  and  _40
REMARK   19  A    between atoms: _40  and  _41
REMARK   20  A    between atoms: _40  and  _43
REMARK   21  A    between atoms: _43  and  _44
REMARK   22  A    between atoms: _44  and  _45
REMARK   23  A    between atoms: _45  and  _46
REMARK   24  A    between atoms: _46  and  _47
REMARK   25  A    between atoms: _51  and  _53
REMARK   26  A    between atoms: _53  and  _54
REMARK   27  A    between atoms: _53  and  _56
REMARK   28  A    between atoms: _56  and  _57
REMARK   29  A    between atoms: _62  and  _64
REMARK   30  A    between atoms: _64  and  _65
REMARK   31  A    between atoms: _64  and  _67
REMARK   32  A    between atoms: _67  and  _68
REMARK   33  A    between atoms: _71  and  _73
REMARK   34  A    between atoms: _73  and  _74
REMARK   35  A    between atoms: _73  and  _76
REMARK   36  A    between atoms: _76  and  _77
REMARK   37  A    between atoms: _80  and  _82
REMARK   38  A    between atoms: _82  and  _83
REMARK   39  A    between atoms: _82  and  _85
REMARK   40  A    between atoms: _88  and  _89
REMARK   41  A    between atoms: _94  and  _96
REMARK   42  A    between atoms: _96  and  _97
REMARK   43  A    between atoms: _96  and  _99
REMARK   44  A    between atoms: _99  and  _100
REMARK   45  A    between atoms: _103  and  _105
REMARK   46  A    between atoms: _105  and  _106
REMARK   47  A    between atoms: _105  and  _108
REMARK   48  A    between atoms: _108  and  _109
REMARK   49  A    between atoms: _115  and  _117
REMARK   50  A    between atoms: _117  and  _118
REMARK   51  A    between atoms: _117  and  _120
REMARK   52  A    between atoms: _120  and  _121
REMARK   53  A    between atoms: _124  and  _126
REMARK   54  A    between atoms: _126  and  _127
REMARK   55  A    between atoms: _129  and  _131
REMARK   56  A    between atoms: _131  and  _132
REMARK   57  A    between atoms: _131  and  _134
REMARK   58  A    between atoms: _134  and  _135
REMARK   59  A    between atoms: _145  and  _147
REMARK   60  A    between atoms: _147  and  _148
REMARK   61  A    between atoms: _147  and  _150
REMARK   62  A    between atoms: _150  and  _151
REMARK   63  A    between atoms: _153  and  _155
REMARK   64  A    between atoms: _155  and  _156
REMARK   65  A    between atoms: _159  and  _161
REMARK   66  A    between atoms: _161  and  _162
REMARK   67  A    between atoms: _161  and  _164
REMARK   68  A    between atoms: _164  and  _165
REMARK   69  A    between atoms: _171  and  _173
REMARK   70  A    between atoms: _173  and  _174
REMARK   71  A    between atoms: _173  and  _176
REMARK   72  A    between atoms: _176  and  _177
REMARK   73  A    between atoms: _180  and  _182
REMARK   74  A    between atoms: _182  and  _183
REMARK   75  A    between atoms: _182  and  _185
REMARK   76  A    between atoms: _185  and  _186
REMARK   77  A    between atoms: _186  and  _187
REMARK   78  A    between atoms: _193  and  _194
REMARK   79  A    between atoms: _199  and  _201
REMARK   80  A    between atoms: _201  and  _202
REMARK                            x       y       z     vdW  Elec       q    Type
REMARK                         _______ _______ _______ _____ _____    ______ ____
ROOT
ATOM      1  O   HOH     1      12.477  37.400  50.349  0.00  0.00    +0.000 OA
ENDROOT
TORSDOF 0
REMARK  Name = ../refined-set-2016/2vyt/2vyt_pocket.pdb
REMARK  80 active torsions:
REMARK  status: ('A' for Active; 'I' for Inactive)
REMARK    1  A    between atoms: _1  and  _3
REMARK    2  A    between atoms: _3  and  _4
REMARK    3  A    between atoms: _7  and  _9
REMARK    4  A    between atoms: _9  and  _10
REMARK    5  A    between atoms: _9  and  _12
REMARK    6  A    between atoms: _12  and  _13
REMARK    7  A    between atoms: _16  and  _18
REMARK    8  A    between atoms: _18  and  _19
REMARK    9  A    between atoms: _18  and  _21
REMARK   10  A    between atoms: _21  and  _22
REMARK   11  A    between atoms: _25  and  _27
REMARK   12  A    between atoms: _27  and  _28
REMARK   13  A    between atoms: _27  and  _30
REMARK   14  A    between atoms: _30  and  _31
REMARK   15  A    between atoms: _31  and  _32
REMARK   16  A    between atoms: _32  and  _33
REMARK   17  A    between atoms: _33  and  _34
REMARK   18  A    between atoms: _38  and  _40
REMARK   19  A    between atoms: _40  and  _41
REMARK   20  A    between atoms: _40  and  _43
REMARK   21  A    between atoms: _43  and  _44
REMARK   22  A    between atoms: _44  and  _45
REMARK   23  A    between atoms: _45  and  _46
REMARK   24  A    between atoms: _46  and  _47
REMARK   25  A    between atoms: _51  and  _53
REMARK   26  A    between atoms: _53  and  _54
REMARK   27  A    between atoms: _53  and  _56
REMARK   28  A    between atoms: _56  and  _57
REMARK   29  A    between atoms: _62  and  _64
REMARK   30  A    between atoms: _64  and  _65
REMARK   31  A    between atoms: _64  and  _67
REMARK   32  A    between atoms: _67  and  _68
REMARK   33  A    between atoms: _71  and  _73
REMARK   34  A    between atoms: _73  and  _74
REMARK   35  A    between atoms: _73  and  _76
REMARK   36  A    between atoms: _76  and  _77
REMARK   37  A    between atoms: _80  and  _82
REMARK   38  A    between atoms: _82  and  _83
REMARK   39  A    between atoms: _82  and  _85
REMARK   40  A    between atoms: _88  and  _89
REMARK   41  A    between atoms: _94  and  _96
REMARK   42  A    between atoms: _96  and  _97
REMARK   43  A    between atoms: _96  and  _99
REMARK   44  A    between atoms: _99  and  _100
REMARK   45  A    between atoms: _103  and  _105
REMARK   46  A    between atoms: _105  and  _106
REMARK   47  A    between atoms: _105  and  _108
REMARK   48  A    between atoms: _108  and  _109
REMARK   49  A    between atoms: _115  and  _117
REMARK   50  A    between atoms: _117  and  _118
REMARK   51  A    between atoms: _117  and  _120
REMARK   52  A    between atoms: _120  and  _121
REMARK   53  A    between atoms: _124  and  _126
REMARK   54  A    between atoms: _126  and  _127
REMARK   55  A    between atoms: _129  and  _131
REMARK   56  A    between atoms: _131  and  _132
REMARK   57  A    between atoms: _131  and  _134
REMARK   58  A    between atoms: _134  and  _135
REMARK   59  A    between atoms: _145  and  _147
REMARK   60  A    between atoms: _147  and  _148
REMARK   61  A    between atoms: _147  and  _150
REMARK   62  A    between atoms: _150  and  _151
REMARK   63  A    between atoms: _153  and  _155
REMARK   64  A    between atoms: _155  and  _156
REMARK   65  A    between atoms: _159  and  _161
REMARK   66  A    between atoms: _161  and  _162
REMARK   67  A    between atoms: _161  and  _164
REMARK   68  A    between atoms: _164  and  _165
REMARK   69  A    between atoms: _171  and  _173
REMARK   70  A    between atoms: _173  and  _174
REMARK   71  A    between atoms: _173  and  _176
REMARK   72  A    between atoms: _176  and  _177
REMARK   73  A    between atoms: _180  and  _182
REMARK   74  A    between atoms: _182  and  _183
REMARK   75  A    between atoms: _182  and  _185
REMARK   76  A    between atoms: _185  and  _186
REMARK   77  A    between atoms: _186  and  _187
REMARK   78  A    between atoms: _193  and  _194
REMARK   79  A    between atoms: _199  and  _201
REMARK   80  A    between atoms: _201  and  _202
REMARK                            x       y       z     vdW  Elec       q    Type
REMARK                         _______ _______ _______ _____ _____    ______ ____
ROOT
ATOM      1  O   HOH     1      17.170  45.979  60.383  0.00  0.00    +0.000 OA
ENDROOT
TORSDOF 0
REMARK  Name = ../refined-set-2016/2vyt/2vyt_pocket.pdb
REMARK  80 active torsions:
REMARK  status: ('A' for Active; 'I' for Inactive)
REMARK    1  A    between atoms: _1  and  _3
REMARK    2  A    between atoms: _3  and  _4
REMARK    3  A    between atoms: _7  and  _9
REMARK    4  A    between atoms: _9  and  _10
REMARK    5  A    between atoms: _9  and  _12
REMARK    6  A    between atoms: _12  and  _13
REMARK    7  A    between atoms: _16  and  _18
REMARK    8  A    between atoms: _18  and  _19
REMARK    9  A    between atoms: _18  and  _21
REMARK   10  A    between atoms: _21  and  _22
REMARK   11  A    between atoms: _25  and  _27
REMARK   12  A    between atoms: _27  and  _28
REMARK   13  A    between atoms: _27  and  _30
REMARK   14  A    between atoms: _30  and  _31
REMARK   15  A    between atoms: _31  and  _32
REMARK   16  A    between atoms: _32  and  _33
REMARK   17  A    between atoms: _33  and  _34
REMARK   18  A    between atoms: _38  and  _40
REMARK   19  A    between atoms: _40  and  _41
REMARK   20  A    between atoms: _40  and  _43
REMARK   21  A    between atoms: _43  and  _44
REMARK   22  A    between atoms: _44  and  _45
REMARK   23  A    between atoms: _45  and  _46
REMARK   24  A    between atoms: _46  and  _47
REMARK   25  A    between atoms: _51  and  _53
REMARK   26  A    between atoms: _53  and  _54
REMARK   27  A    between atoms: _53  and  _56
REMARK   28  A    between atoms: _56  and  _57
REMARK   29  A    between atoms: _62  and  _64
REMARK   30  A    between atoms: _64  and  _65
REMARK   31  A    between atoms: _64  and  _67
REMARK   32  A    between atoms: _67  and  _68
REMARK   33  A    between atoms: _71  and  _73
REMARK   34  A    between atoms: _73  and  _74
REMARK   35  A    between atoms: _73  and  _76
REMARK   36  A    between atoms: _76  and  _77
REMARK   37  A    between atoms: _80  and  _82
REMARK   38  A    between atoms: _82  and  _83
REMARK   39  A    between atoms: _82  and  _85
REMARK   40  A    between atoms: _88  and  _89
REMARK   41  A    between atoms: _94  and  _96
REMARK   42  A    between atoms: _96  and  _97
REMARK   43  A    between atoms: _96  and  _99
REMARK   44  A    between atoms: _99  and  _100
REMARK   45  A    between atoms: _103  and  _105
REMARK   46  A    between atoms: _105  and  _106
REMARK   47  A    between atoms: _105  and  _108
REMARK   48  A    between atoms: _108  and  _109
REMARK   49  A    between atoms: _115  and  _117
REMARK   50  A    between atoms: _117  and  _118
REMARK   51  A    between atoms: _117  and  _120
REMARK   52  A    between atoms: _120  and  _121
REMARK   53  A    between atoms: _124  and  _126
REMARK   54  A    between atoms: _126  and  _127
REMARK   55  A    between atoms: _129  and  _131
REMARK   56  A    between atoms: _131  and  _132
REMARK   57  A    between atoms: _131  and  _134
REMARK   58  A    between atoms: _134  and  _135
REMARK   59  A    between atoms: _145  and  _147
REMARK   60  A    between atoms: _147  and  _148
REMARK   61  A    between atoms: _147  and  _150
REMARK   62  A    between atoms: _150  and  _151
REMARK   63  A    between atoms: _153  and  _155
REMARK   64  A    between atoms: _155  and  _156
REMARK   65  A    between atoms: _159  and  _161
REMARK   66  A    between atoms: _161  and  _162
REMARK   67  A    between atoms: _161  and  _164
REMARK   68  A    between atoms: _164  and  _165
REMARK   69  A    between atoms: _171  and  _173
REMARK   70  A    between atoms: _173  and  _174
REMARK   71  A    between atoms: _173  and  _176
REMARK   72  A    between atoms: _176  and  _177
REMARK   73  A    between atoms: _180  and  _182
REMARK   74  A    between atoms: _182  and  _183
REMARK   75  A    between atoms: _182  and  _185
REMARK   76  A    between atoms: _185  and  _186
REMARK   77  A    between atoms: _186  and  _187
REMARK   78  A    between atoms: _193  and  _194
REMARK   79  A    between atoms: _199  and  _201
REMARK   80  A    between atoms: _201  and  _202
REMARK                            x       y       z     vdW  Elec       q    Type
REMARK                         _______ _______ _______ _____ _____    ______ ____
ROOT
ATOM      1  O   HOH     1       9.770  47.295  53.662  0.00  0.00    +0.000 OA
ENDROOT
TORSDOF 0
REMARK  Name = ../refined-set-2016/2vyt/2vyt_pocket.pdb
REMARK  80 active torsions:
REMARK  status: ('A' for Active; 'I' for Inactive)
REMARK    1  A    between atoms: _1  and  _3
REMARK    2  A    between atoms: _3  and  _4
REMARK    3  A    between atoms: _7  and  _9
REMARK    4  A    between atoms: _9  and  _10
REMARK    5  A    between atoms: _9  and  _12
REMARK    6  A    between atoms: _12  and  _13
REMARK    7  A    between atoms: _16  and  _18
REMARK    8  A    between atoms: _18  and  _19
REMARK    9  A    between atoms: _18  and  _21
REMARK   10  A    between atoms: _21  and  _22
REMARK   11  A    between atoms: _25  and  _27
REMARK   12  A    between atoms: _27  and  _28
REMARK   13  A    between atoms: _27  and  _30
REMARK   14  A    between atoms: _30  and  _31
REMARK   15  A    between atoms: _31  and  _32
REMARK   16  A    between atoms: _32  and  _33
REMARK   17  A    between atoms: _33  and  _34
REMARK   18  A    between atoms: _38  and  _40
REMARK   19  A    between atoms: _40  and  _41
REMARK   20  A    between atoms: _40  and  _43
REMARK   21  A    between atoms: _43  and  _44
REMARK   22  A    between atoms: _44  and  _45
REMARK   23  A    between atoms: _45  and  _46
REMARK   24  A    between atoms: _46  and  _47
REMARK   25  A    between atoms: _51  and  _53
REMARK   26  A    between atoms: _53  and  _54
REMARK   27  A    between atoms: _53  and  _56
REMARK   28  A    between atoms: _56  and  _57
REMARK   29  A    between atoms: _62  and  _64
REMARK   30  A    between atoms: _64  and  _65
REMARK   31  A    between atoms: _64  and  _67
REMARK   32  A    between atoms: _67  and  _68
REMARK   33  A    between atoms: _71  and  _73
REMARK   34  A    between atoms: _73  and  _74
REMARK   35  A    between atoms: _73  and  _76
REMARK   36  A    between atoms: _76  and  _77
REMARK   37  A    between atoms: _80  and  _82
REMARK   38  A    between atoms: _82  and  _83
REMARK   39  A    between atoms: _82  and  _85
REMARK   40  A    between atoms: _88  and  _89
REMARK   41  A    between atoms: _94  and  _96
REMARK   42  A    between atoms: _96  and  _97
REMARK   43  A    between atoms: _96  and  _99
REMARK   44  A    between atoms: _99  and  _100
REMARK   45  A    between atoms: _103  and  _105
REMARK   46  A    between atoms: _105  and  _106
REMARK   47  A    between atoms: _105  and  _108
REMARK   48  A    between atoms: _108  and  _109
REMARK   49  A    between atoms: _115  and  _117
REMARK   50  A    between atoms: _117  and  _118
REMARK   51  A    between atoms: _117  and  _120
REMARK   52  A    between atoms: _120  and  _121
REMARK   53  A    between atoms: _124  and  _126
REMARK   54  A    between atoms: _126  and  _127
REMARK   55  A    between atoms: _129  and  _131
REMARK   56  A    between atoms: _131  and  _132
REMARK   57  A    between atoms: _131  and  _134
REMARK   58  A    between atoms: _134  and  _135
REMARK   59  A    between atoms: _145  and  _147
REMARK   60  A    between atoms: _147  and  _148
REMARK   61  A    between atoms: _147  and  _150
REMARK   62  A    between atoms: _150  and  _151
REMARK   63  A    between atoms: _153  and  _155
REMARK   64  A    between atoms: _155  and  _156
REMARK   65  A    between atoms: _159  and  _161
REMARK   66  A    between atoms: _161  and  _162
REMARK   67  A    between atoms: _161  and  _164
REMARK   68  A    between atoms: _164  and  _165
REMARK   69  A    between atoms: _171  and  _173
REMARK   70  A    between atoms: _173  and  _174
REMARK   71  A    between atoms: _173  and  _176
REMARK   72  A    between atoms: _176  and  _177
REMARK   73  A    between atoms: _180  and  _182
REMARK   74  A    between atoms: _182  and  _183
REMARK   75  A    between atoms: _182  and  _185
REMARK   76  A    between atoms: _185  and  _186
REMARK   77  A    between atoms: _186  and  _187
REMARK   78  A    between atoms: _193  and  _194
REMARK   79  A    between atoms: _199  and  _201
REMARK   80  A    between atoms: _201  and  _202
REMARK                            x       y       z     vdW  Elec       q    Type
REMARK                         _______ _______ _______ _____ _____    ______ ____
ROOT
ATOM      1  O   HOH     1      14.672  50.911  55.549  0.00  0.00    +0.000 OA
ENDROOT
TORSDOF 0
REMARK  Name = ../refined-set-2016/2vyt/2vyt_pocket.pdb
REMARK  80 active torsions:
REMARK  status: ('A' for Active; 'I' for Inactive)
REMARK    1  A    between atoms: _1  and  _3
REMARK    2  A    between atoms: _3  and  _4
REMARK    3  A    between atoms: _7  and  _9
REMARK    4  A    between atoms: _9  and  _10
REMARK    5  A    between atoms: _9  and  _12
REMARK    6  A    between atoms: _12  and  _13
REMARK    7  A    between atoms: _16  and  _18
REMARK    8  A    between atoms: _18  and  _19
REMARK    9  A    between atoms: _18  and  _21
REMARK   10  A    between atoms: _21  and  _22
REMARK   11  A    between atoms: _25  and  _27
REMARK   12  A    between atoms: _27  and  _28
REMARK   13  A    between atoms: _27  and  _30
REMARK   14  A    between atoms: _30  and  _31
REMARK   15  A    between atoms: _31  and  _32
REMARK   16  A    between atoms: _32  and  _33
REMARK   17  A    between atoms: _33  and  _34
REMARK   18  A    between atoms: _38  and  _40
REMARK   19  A    between atoms: _40  and  _41
REMARK   20  A    between atoms: _40  and  _43
REMARK   21  A    between atoms: _43  and  _44
REMARK   22  A    between atoms: _44  and  _45
REMARK   23  A    between atoms: _45  and  _46
REMARK   24  A    between atoms: _46  and  _47
REMARK   25  A    between atoms: _51  and  _53
REMARK   26  A    between atoms: _53  and  _54
REMARK   27  A    between atoms: _53  and  _56
REMARK   28  A    between atoms: _56  and  _57
REMARK   29  A    between atoms: _62  and  _64
REMARK   30  A    between atoms: _64  and  _65
REMARK   31  A    between atoms: _64  and  _67
REMARK   32  A    between atoms: _67  and  _68
REMARK   33  A    between atoms: _71  and  _73
REMARK   34  A    between atoms: _73  and  _74
REMARK   35  A    between atoms: _73  and  _76
REMARK   36  A    between atoms: _76  and  _77
REMARK   37  A    between atoms: _80  and  _82
REMARK   38  A    between atoms: _82  and  _83
REMARK   39  A    between atoms: _82  and  _85
REMARK   40  A    between atoms: _88  and  _89
REMARK   41  A    between atoms: _94  and  _96
REMARK   42  A    between atoms: _96  and  _97
REMARK   43  A    between atoms: _96  and  _99
REMARK   44  A    between atoms: _99  and  _100
REMARK   45  A    between atoms: _103  and  _105
REMARK   46  A    between atoms: _105  and  _106
REMARK   47  A    between atoms: _105  and  _108
REMARK   48  A    between atoms: _108  and  _109
REMARK   49  A    between atoms: _115  and  _117
REMARK   50  A    between atoms: _117  and  _118
REMARK   51  A    between atoms: _117  and  _120
REMARK   52  A    between atoms: _120  and  _121
REMARK   53  A    between atoms: _124  and  _126
REMARK   54  A    between atoms: _126  and  _127
REMARK   55  A    between atoms: _129  and  _131
REMARK   56  A    between atoms: _131  and  _132
REMARK   57  A    between atoms: _131  and  _134
REMARK   58  A    between atoms: _134  and  _135
REMARK   59  A    between atoms: _145  and  _147
REMARK   60  A    between atoms: _147  and  _148
REMARK   61  A    between atoms: _147  and  _150
REMARK   62  A    between atoms: _150  and  _151
REMARK   63  A    between atoms: _153  and  _155
REMARK   64  A    between atoms: _155  and  _156
REMARK   65  A    between atoms: _159  and  _161
REMARK   66  A    between atoms: _161  and  _162
REMARK   67  A    between atoms: _161  and  _164
REMARK   68  A    between atoms: _164  and  _165
REMARK   69  A    between atoms: _171  and  _173
REMARK   70  A    between atoms: _173  and  _174
REMARK   71  A    between atoms: _173  and  _176
REMARK   72  A    between atoms: _176  and  _177
REMARK   73  A    between atoms: _180  and  _182
REMARK   74  A    between atoms: _182  and  _183
REMARK   75  A    between atoms: _182  and  _185
REMARK   76  A    between atoms: _185  and  _186
REMARK   77  A    between atoms: _186  and  _187
REMARK   78  A    between atoms: _193  and  _194
REMARK   79  A    between atoms: _199  and  _201
REMARK   80  A    between atoms: _201  and  _202
REMARK                            x       y       z     vdW  Elec       q    Type
REMARK                         _______ _______ _______ _____ _____    ______ ____
ROOT
ATOM      1  O   HOH     1      18.267  39.897  56.328  0.00  0.00    +0.000 OA
ENDROOT
TORSDOF 0
REMARK  Name = ../refined-set-2016/2vyt/2vyt_pocket.pdb
REMARK  80 active torsions:
REMARK  status: ('A' for Active; 'I' for Inactive)
REMARK    1  A    between atoms: _1  and  _3
REMARK    2  A    between atoms: _3  and  _4
REMARK    3  A    between atoms: _7  and  _9
REMARK    4  A    between atoms: _9  and  _10
REMARK    5  A    between atoms: _9  and  _12
REMARK    6  A    between atoms: _12  and  _13
REMARK    7  A    between atoms: _16  and  _18
REMARK    8  A    between atoms: _18  and  _19
REMARK    9  A    between atoms: _18  and  _21
REMARK   10  A    between atoms: _21  and  _22
REMARK   11  A    between atoms: _25  and  _27
REMARK   12  A    between atoms: _27  and  _28
REMARK   13  A    between atoms: _27  and  _30
REMARK   14  A    between atoms: _30  and  _31
REMARK   15  A    between atoms: _31  and  _32
REMARK   16  A    between atoms: _32  and  _33
REMARK   17  A    between atoms: _33  and  _34
REMARK   18  A    between atoms: _38  and  _40
REMARK   19  A    between atoms: _40  and  _41
REMARK   20  A    between atoms: _40  and  _43
REMARK   21  A    between atoms: _43  and  _44
REMARK   22  A    between atoms: _44  and  _45
REMARK   23  A    between atoms: _45  and  _46
REMARK   24  A    between atoms: _46  and  _47
REMARK   25  A    between atoms: _51  and  _53
REMARK   26  A    between atoms: _53  and  _54
REMARK   27  A    between atoms: _53  and  _56
REMARK   28  A    between atoms: _56  and  _57
REMARK   29  A    between atoms: _62  and  _64
REMARK   30  A    between atoms: _64  and  _65
REMARK   31  A    between atoms: _64  and  _67
REMARK   32  A    between atoms: _67  and  _68
REMARK   33  A    between atoms: _71  and  _73
REMARK   34  A    between atoms: _73  and  _74
REMARK   35  A    between atoms: _73  and  _76
REMARK   36  A    between atoms: _76  and  _77
REMARK   37  A    between atoms: _80  and  _82
REMARK   38  A    between atoms: _82  and  _83
REMARK   39  A    between atoms: _82  and  _85
REMARK   40  A    between atoms: _88  and  _89
REMARK   41  A    between atoms: _94  and  _96
REMARK   42  A    between atoms: _96  and  _97
REMARK   43  A    between atoms: _96  and  _99
REMARK   44  A    between atoms: _99  and  _100
REMARK   45  A    between atoms: _103  and  _105
REMARK   46  A    between atoms: _105  and  _106
REMARK   47  A    between atoms: _105  and  _108
REMARK   48  A    between atoms: _108  and  _109
REMARK   49  A    between atoms: _115  and  _117
REMARK   50  A    between atoms: _117  and  _118
REMARK   51  A    between atoms: _117  and  _120
REMARK   52  A    between atoms: _120  and  _121
REMARK   53  A    between atoms: _124  and  _126
REMARK   54  A    between atoms: _126  and  _127
REMARK   55  A    between atoms: _129  and  _131
REMARK   56  A    between atoms: _131  and  _132
REMARK   57  A    between atoms: _131  and  _134
REMARK   58  A    between atoms: _134  and  _135
REMARK   59  A    between atoms: _145  and  _147
REMARK   60  A    between atoms: _147  and  _148
REMARK   61  A    between atoms: _147  and  _150
REMARK   62  A    between atoms: _150  and  _151
REMARK   63  A    between atoms: _153  and  _155
REMARK   64  A    between atoms: _155  and  _156
REMARK   65  A    between atoms: _159  and  _161
REMARK   66  A    between atoms: _161  and  _162
REMARK   67  A    between atoms: _161  and  _164
REMARK   68  A    between atoms: _164  and  _165
REMARK   69  A    between atoms: _171  and  _173
REMARK   70  A    between atoms: _173  and  _174
REMARK   71  A    between atoms: _173  and  _176
REMARK   72  A    between atoms: _176  and  _177
REMARK   73  A    between atoms: _180  and  _182
REMARK   74  A    between atoms: _182  and  _183
REMARK   75  A    between atoms: _182  and  _185
REMARK   76  A    between atoms: _185  and  _186
REMARK   77  A    between atoms: _186  and  _187
REMARK   78  A    between atoms: _193  and  _194
REMARK   79  A    between atoms: _199  and  _201
REMARK   80  A    between atoms: _201  and  _202
REMARK                            x       y       z     vdW  Elec       q    Type
REMARK                         _______ _______ _______ _____ _____    ______ ____
ROOT
ATOM      1  O   HOH     1      17.480  43.535  58.907  0.00  0.00    +0.000 OA
ENDROOT
TORSDOF 0
REMARK  Name = ../refined-set-2016/2vyt/2vyt_pocket.pdb
REMARK  80 active torsions:
REMARK  status: ('A' for Active; 'I' for Inactive)
REMARK    1  A    between atoms: _1  and  _3
REMARK    2  A    between atoms: _3  and  _4
REMARK    3  A    between atoms: _7  and  _9
REMARK    4  A    between atoms: _9  and  _10
REMARK    5  A    between atoms: _9  and  _12
REMARK    6  A    between atoms: _12  and  _13
REMARK    7  A    between atoms: _16  and  _18
REMARK    8  A    between atoms: _18  and  _19
REMARK    9  A    between atoms: _18  and  _21
REMARK   10  A    between atoms: _21  and  _22
REMARK   11  A    between atoms: _25  and  _27
REMARK   12  A    between atoms: _27  and  _28
REMARK   13  A    between atoms: _27  and  _30
REMARK   14  A    between atoms: _30  and  _31
REMARK   15  A    between atoms: _31  and  _32
REMARK   16  A    between atoms: _32  and  _33
REMARK   17  A    between atoms: _33  and  _34
REMARK   18  A    between atoms: _38  and  _40
REMARK   19  A    between atoms: _40  and  _41
REMARK   20  A    between atoms: _40  and  _43
REMARK   21  A    between atoms: _43  and  _44
REMARK   22  A    between atoms: _44  and  _45
REMARK   23  A    between atoms: _45  and  _46
REMARK   24  A    between atoms: _46  and  _47
REMARK   25  A    between atoms: _51  and  _53
REMARK   26  A    between atoms: _53  and  _54
REMARK   27  A    between atoms: _53  and  _56
REMARK   28  A    between atoms: _56  and  _57
REMARK   29  A    between atoms: _62  and  _64
REMARK   30  A    between atoms: _64  and  _65
REMARK   31  A    between atoms: _64  and  _67
REMARK   32  A    between atoms: _67  and  _68
REMARK   33  A    between atoms: _71  and  _73
REMARK   34  A    between atoms: _73  and  _74
REMARK   35  A    between atoms: _73  and  _76
REMARK   36  A    between atoms: _76  and  _77
REMARK   37  A    between atoms: _80  and  _82
REMARK   38  A    between atoms: _82  and  _83
REMARK   39  A    between atoms: _82  and  _85
REMARK   40  A    between atoms: _88  and  _89
REMARK   41  A    between atoms: _94  and  _96
REMARK   42  A    between atoms: _96  and  _97
REMARK   43  A    between atoms: _96  and  _99
REMARK   44  A    between atoms: _99  and  _100
REMARK   45  A    between atoms: _103  and  _105
REMARK   46  A    between atoms: _105  and  _106
REMARK   47  A    between atoms: _105  and  _108
REMARK   48  A    between atoms: _108  and  _109
REMARK   49  A    between atoms: _115  and  _117
REMARK   50  A    between atoms: _117  and  _118
REMARK   51  A    between atoms: _117  and  _120
REMARK   52  A    between atoms: _120  and  _121
REMARK   53  A    between atoms: _124  and  _126
REMARK   54  A    between atoms: _126  and  _127
REMARK   55  A    between atoms: _129  and  _131
REMARK   56  A    between atoms: _131  and  _132
REMARK   57  A    between atoms: _131  and  _134
REMARK   58  A    between atoms: _134  and  _135
REMARK   59  A    between atoms: _145  and  _147
REMARK   60  A    between atoms: _147  and  _148
REMARK   61  A    between atoms: _147  and  _150
REMARK   62  A    between atoms: _150  and  _151
REMARK   63  A    between atoms: _153  and  _155
REMARK   64  A    between atoms: _155  and  _156
REMARK   65  A    between atoms: _159  and  _161
REMARK   66  A    between atoms: _161  and  _162
REMARK   67  A    between atoms: _161  and  _164
REMARK   68  A    between atoms: _164  and  _165
REMARK   69  A    between atoms: _171  and  _173
REMARK   70  A    between atoms: _173  and  _174
REMARK   71  A    between atoms: _173  and  _176
REMARK   72  A    between atoms: _176  and  _177
REMARK   73  A    between atoms: _180  and  _182
REMARK   74  A    between atoms: _182  and  _183
REMARK   75  A    between atoms: _182  and  _185
REMARK   76  A    between atoms: _185  and  _186
REMARK   77  A    between atoms: _186  and  _187
REMARK   78  A    between atoms: _193  and  _194
REMARK   79  A    between atoms: _199  and  _201
REMARK   80  A    between atoms: _201  and  _202
REMARK                            x       y       z     vdW  Elec       q    Type
REMARK                         _______ _______ _______ _____ _____    ______ ____
ROOT
ATOM      1  O   HOH     1      20.088  41.937  57.632  0.00  0.00    +0.000 OA
ENDROOT
TORSDOF 0
REMARK  Name = ../refined-set-2016/2vyt/2vyt_pocket.pdb
REMARK  80 active torsions:
REMARK  status: ('A' for Active; 'I' for Inactive)
REMARK    1  A    between atoms: _1  and  _3
REMARK    2  A    between atoms: _3  and  _4
REMARK    3  A    between atoms: _7  and  _9
REMARK    4  A    between atoms: _9  and  _10
REMARK    5  A    between atoms: _9  and  _12
REMARK    6  A    between atoms: _12  and  _13
REMARK    7  A    between atoms: _16  and  _18
REMARK    8  A    between atoms: _18  and  _19
REMARK    9  A    between atoms: _18  and  _21
REMARK   10  A    between atoms: _21  and  _22
REMARK   11  A    between atoms: _25  and  _27
REMARK   12  A    between atoms: _27  and  _28
REMARK   13  A    between atoms: _27  and  _30
REMARK   14  A    between atoms: _30  and  _31
REMARK   15  A    between atoms: _31  and  _32
REMARK   16  A    between atoms: _32  and  _33
REMARK   17  A    between atoms: _33  and  _34
REMARK   18  A    between atoms: _38  and  _40
REMARK   19  A    between atoms: _40  and  _41
REMARK   20  A    between atoms: _40  and  _43
REMARK   21  A    between atoms: _43  and  _44
REMARK   22  A    between atoms: _44  and  _45
REMARK   23  A    between atoms: _45  and  _46
REMARK   24  A    between atoms: _46  and  _47
REMARK   25  A    between atoms: _51  and  _53
REMARK   26  A    between atoms: _53  and  _54
REMARK   27  A    between atoms: _53  and  _56
REMARK   28  A    between atoms: _56  and  _57
REMARK   29  A    between atoms: _62  and  _64
REMARK   30  A    between atoms: _64  and  _65
REMARK   31  A    between atoms: _64  and  _67
REMARK   32  A    between atoms: _67  and  _68
REMARK   33  A    between atoms: _71  and  _73
REMARK   34  A    between atoms: _73  and  _74
REMARK   35  A    between atoms: _73  and  _76
REMARK   36  A    between atoms: _76  and  _77
REMARK   37  A    between atoms: _80  and  _82
REMARK   38  A    between atoms: _82  and  _83
REMARK   39  A    between atoms: _82  and  _85
REMARK   40  A    between atoms: _88  and  _89
REMARK   41  A    between atoms: _94  and  _96
REMARK   42  A    between atoms: _96  and  _97
REMARK   43  A    between atoms: _96  and  _99
REMARK   44  A    between atoms: _99  and  _100
REMARK   45  A    between atoms: _103  and  _105
REMARK   46  A    between atoms: _105  and  _106
REMARK   47  A    between atoms: _105  and  _108
REMARK   48  A    between atoms: _108  and  _109
REMARK   49  A    between atoms: _115  and  _117
REMARK   50  A    between atoms: _117  and  _118
REMARK   51  A    between atoms: _117  and  _120
REMARK   52  A    between atoms: _120  and  _121
REMARK   53  A    between atoms: _124  and  _126
REMARK   54  A    between atoms: _126  and  _127
REMARK   55  A    between atoms: _129  and  _131
REMARK   56  A    between atoms: _131  and  _132
REMARK   57  A    between atoms: _131  and  _134
REMARK   58  A    between atoms: _134  and  _135
REMARK   59  A    between atoms: _145  and  _147
REMARK   60  A    between atoms: _147  and  _148
REMARK   61  A    between atoms: _147  and  _150
REMARK   62  A    between atoms: _150  and  _151
REMARK   63  A    between atoms: _153  and  _155
REMARK   64  A    between atoms: _155  and  _156
REMARK   65  A    between atoms: _159  and  _161
REMARK   66  A    between atoms: _161  and  _162
REMARK   67  A    between atoms: _161  and  _164
REMARK   68  A    between atoms: _164  and  _165
REMARK   69  A    between atoms: _171  and  _173
REMARK   70  A    between atoms: _173  and  _174
REMARK   71  A    between atoms: _173  and  _176
REMARK   72  A    between atoms: _176  and  _177
REMARK   73  A    between atoms: _180  and  _182
REMARK   74  A    between atoms: _182  and  _183
REMARK   75  A    between atoms: _182  and  _185
REMARK   76  A    between atoms: _185  and  _186
REMARK   77  A    between atoms: _186  and  _187
REMARK   78  A    between atoms: _193  and  _194
REMARK   79  A    between atoms: _199  and  _201
REMARK   80  A    between atoms: _201  and  _202
REMARK                            x       y       z     vdW  Elec       q    Type
REMARK                         _______ _______ _______ _____ _____    ______ ____
ROOT
ATOM      1  O   HOH     1      16.490  42.301  56.391  0.00  0.00    +0.000 OA
ENDROOT
TORSDOF 0
