REMARK  Name = ../refined-set-2016/4tmk/4tmk_pocket.pdb
REMARK  286 active torsions:
REMARK  status: ('A' for Active; 'I' for Inactive)
REMARK    1  A    between atoms: _1  and  _3
REMARK    2  A    between atoms: _3  and  _4
REMARK    3  A    between atoms: _3  and  _6
REMARK    4  A    between atoms: _6  and  _7
REMARK    5  A    between atoms: _10  and  _12
REMARK    6  A    between atoms: _12  and  _13
REMARK    7  A    between atoms: _12  and  _15
REMARK    8  A    between atoms: _15  and  _16
REMARK    9  A    between atoms: _16  and  _17
REMARK   10  A    between atoms: _20  and  _22
REMARK   11  A    between atoms: _22  and  _23
REMARK   12  A    between atoms: _25  and  _27
REMARK   13  A    between atoms: _27  and  _28
REMARK   14  A    between atoms: _27  and  _30
REMARK   15  A    between atoms: _30  and  _31
REMARK   16  A    between atoms: _34  and  _36
REMARK   17  A    between atoms: _36  and  _37
REMARK   18  A    between atoms: _36  and  _39
REMARK   19  A    between atoms: _39  and  _40
REMARK   20  A    between atoms: _40  and  _41
REMARK   21  A    between atoms: _44  and  _46
REMARK   22  A    between atoms: _46  and  _47
REMARK   23  A    between atoms: _49  and  _51
REMARK   24  A    between atoms: _51  and  _52
REMARK   25  A    between atoms: _55  and  _57
REMARK   26  A    between atoms: _57  and  _58
REMARK   27  A    between atoms: _60  and  _62
REMARK   28  A    between atoms: _62  and  _63
REMARK   29  A    between atoms: _62  and  _65
REMARK   30  A    between atoms: _65  and  _66
REMARK   31  A    between atoms: _66  and  _67
REMARK   32  A    between atoms: _67  and  _68
REMARK   33  A    between atoms: _68  and  _69
REMARK   34  A    between atoms: _73  and  _75
REMARK   35  A    between atoms: _75  and  _76
REMARK   36  A    between atoms: _75  and  _78
REMARK   37  A    between atoms: _78  and  _79
REMARK   38  A    between atoms: _82  and  _84
REMARK   39  A    between atoms: _84  and  _85
REMARK   40  A    between atoms: _84  and  _87
REMARK   41  A    between atoms: _87  and  _88
REMARK   42  A    between atoms: _91  and  _93
REMARK   43  A    between atoms: _93  and  _94
REMARK   44  A    between atoms: _97  and  _99
REMARK   45  A    between atoms: _99  and  _100
REMARK   46  A    between atoms: _99  and  _102
REMARK   47  A    between atoms: _102  and  _103
REMARK   48  A    between atoms: _103  and  _104
REMARK   49  A    between atoms: _104  and  _105
REMARK   50  A    between atoms: _114  and  _116
REMARK   51  A    between atoms: _116  and  _117
REMARK   52  A    between atoms: _116  and  _119
REMARK   53  A    between atoms: _119  and  _120
REMARK   54  A    between atoms: _125  and  _127
REMARK   55  A    between atoms: _127  and  _128
REMARK   56  A    between atoms: _127  and  _130
REMARK   57  A    between atoms: _130  and  _131
REMARK   58  A    between atoms: _131  and  _132
REMARK   59  A    between atoms: _132  and  _133
REMARK   60  A    between atoms: _142  and  _144
REMARK   61  A    between atoms: _144  and  _145
REMARK   62  A    between atoms: _144  and  _147
REMARK   63  A    between atoms: _147  and  _148
REMARK   64  A    between atoms: _148  and  _149
REMARK   65  A    between atoms: _153  and  _154
REMARK   66  A    between atoms: _159  and  _161
REMARK   67  A    between atoms: _161  and  _162
REMARK   68  A    between atoms: _164  and  _166
REMARK   69  A    between atoms: _166  and  _167
REMARK   70  A    between atoms: _166  and  _169
REMARK   71  A    between atoms: _169  and  _170
REMARK   72  A    between atoms: _170  and  _171
REMARK   73  A    between atoms: _171  and  _172
REMARK   74  A    between atoms: _181  and  _183
REMARK   75  A    between atoms: _183  and  _184
REMARK   76  A    between atoms: _183  and  _186
REMARK   77  A    between atoms: _186  and  _187
REMARK   78  A    between atoms: _190  and  _192
REMARK   79  A    between atoms: _192  and  _193
REMARK   80  A    between atoms: _192  and  _195
REMARK   81  A    between atoms: _195  and  _196
REMARK   82  A    between atoms: _199  and  _201
REMARK   83  A    between atoms: _201  and  _202
REMARK   84  A    between atoms: _201  and  _204
REMARK   85  A    between atoms: _204  and  _205
REMARK   86  A    between atoms: _205  and  _206
REMARK   87  A    between atoms: _209  and  _211
REMARK   88  A    between atoms: _211  and  _212
REMARK   89  A    between atoms: _211  and  _214
REMARK   90  A    between atoms: _217  and  _219
REMARK   91  A    between atoms: _219  and  _220
REMARK   92  A    between atoms: _219  and  _222
REMARK   93  A    between atoms: _222  and  _223
REMARK   94  A    between atoms: _223  and  _224
REMARK   95  A    between atoms: _226  and  _228
REMARK   96  A    between atoms: _228  and  _229
REMARK   97  A    between atoms: _228  and  _231
REMARK   98  A    between atoms: _231  and  _232
REMARK   99  A    between atoms: _238  and  _240
REMARK  100  A    between atoms: _240  and  _241
REMARK  101  A    between atoms: _240  and  _243
REMARK  102  A    between atoms: _243  and  _244
REMARK  103  A    between atoms: _249  and  _250
REMARK  104  A    between atoms: _252  and  _254
REMARK  105  A    between atoms: _254  and  _255
REMARK  106  A    between atoms: _258  and  _260
REMARK  107  A    between atoms: _260  and  _261
REMARK  108  A    between atoms: _260  and  _263
REMARK  109  A    between atoms: _263  and  _264
REMARK  110  A    between atoms: _264  and  _265
REMARK  111  A    between atoms: _265  and  _266
REMARK  112  A    between atoms: _275  and  _277
REMARK  113  A    between atoms: _277  and  _278
REMARK  114  A    between atoms: _277  and  _280
REMARK  115  A    between atoms: _280  and  _281
REMARK  116  A    between atoms: _284  and  _286
REMARK  117  A    between atoms: _286  and  _287
REMARK  118  A    between atoms: _286  and  _289
REMARK  119  A    between atoms: _289  and  _290
REMARK  120  A    between atoms: _290  and  _291
REMARK  121  A    between atoms: _291  and  _292
REMARK  122  A    between atoms: _301  and  _303
REMARK  123  A    between atoms: _303  and  _304
REMARK  124  A    between atoms: _303  and  _306
REMARK  125  A    between atoms: _306  and  _307
REMARK  126  A    between atoms: _312  and  _314
REMARK  127  A    between atoms: _314  and  _315
REMARK  128  A    between atoms: _314  and  _317
REMARK  129  A    between atoms: _317  and  _318
REMARK  130  A    between atoms: _321  and  _323
REMARK  131  A    between atoms: _323  and  _324
REMARK  132  A    between atoms: _323  and  _326
REMARK  133  A    between atoms: _326  and  _327
REMARK  134  A    between atoms: _330  and  _332
REMARK  135  A    between atoms: _332  and  _333
REMARK  136  A    between atoms: _332  and  _335
REMARK  137  A    between atoms: _335  and  _336
REMARK  138  A    between atoms: _338  and  _340
REMARK  139  A    between atoms: _340  and  _341
REMARK  140  A    between atoms: _340  and  _343
REMARK  141  A    between atoms: _343  and  _344
REMARK  142  A    between atoms: _347  and  _349
REMARK  143  A    between atoms: _349  and  _350
REMARK  144  A    between atoms: _349  and  _352
REMARK  145  A    between atoms: _352  and  _353
REMARK  146  A    between atoms: _353  and  _354
REMARK  147  A    between atoms: _359  and  _361
REMARK  148  A    between atoms: _361  and  _362
REMARK  149  A    between atoms: _365  and  _367
REMARK  150  A    between atoms: _367  and  _368
REMARK  151  A    between atoms: _367  and  _370
REMARK  152  A    between atoms: _370  and  _371
REMARK  153  A    between atoms: _376  and  _377
REMARK  154  A    between atoms: _379  and  _381
REMARK  155  A    between atoms: _381  and  _382
REMARK  156  A    between atoms: _381  and  _384
REMARK  157  A    between atoms: _384  and  _385
REMARK  158  A    between atoms: _385  and  _386
REMARK  159  A    between atoms: _391  and  _393
REMARK  160  A    between atoms: _393  and  _394
REMARK  161  A    between atoms: _396  and  _398
REMARK  162  A    between atoms: _398  and  _399
REMARK  163  A    between atoms: _401  and  _403
REMARK  164  A    between atoms: _403  and  _404
REMARK  165  A    between atoms: _403  and  _406
REMARK  166  A    between atoms: _406  and  _407
REMARK  167  A    between atoms: _407  and  _408
REMARK  168  A    between atoms: _408  and  _409
REMARK  169  A    between atoms: _418  and  _420
REMARK  170  A    between atoms: _420  and  _421
REMARK  171  A    between atoms: _420  and  _423
REMARK  172  A    between atoms: _423  and  _424
REMARK  173  A    between atoms: _427  and  _429
REMARK  174  A    between atoms: _429  and  _430
REMARK  175  A    between atoms: _429  and  _432
REMARK  176  A    between atoms: _435  and  _437
REMARK  177  A    between atoms: _437  and  _438
REMARK  178  A    between atoms: _437  and  _440
REMARK  179  A    between atoms: _443  and  _445
REMARK  180  A    between atoms: _445  and  _446
REMARK  181  A    between atoms: _448  and  _450
REMARK  182  A    between atoms: _450  and  _451
REMARK  183  A    between atoms: _450  and  _453
REMARK  184  A    between atoms: _453  and  _454
REMARK  185  A    between atoms: _454  and  _455
REMARK  186  A    between atoms: _455  and  _456
REMARK  187  A    between atoms: _456  and  _457
REMARK  188  A    between atoms: _461  and  _463
REMARK  189  A    between atoms: _463  and  _464
REMARK  190  A    between atoms: _463  and  _466
REMARK  191  A    between atoms: _466  and  _467
REMARK  192  A    between atoms: _467  and  _468
REMARK  193  A    between atoms: _468  and  _469
REMARK  194  A    between atoms: _478  and  _480
REMARK  195  A    between atoms: _480  and  _481
REMARK  196  A    between atoms: _484  and  _486
REMARK  197  A    between atoms: _486  and  _487
REMARK  198  A    between atoms: _486  and  _489
REMARK  199  A    between atoms: _489  and  _490
REMARK  200  A    between atoms: _490  and  _491
REMARK  201  A    between atoms: _491  and  _492
REMARK  202  A    between atoms: _501  and  _503
REMARK  203  A    between atoms: _503  and  _504
REMARK  204  A    between atoms: _507  and  _509
REMARK  205  A    between atoms: _509  and  _510
REMARK  206  A    between atoms: _509  and  _512
REMARK  207  A    between atoms: _512  and  _513
REMARK  208  A    between atoms: _513  and  _514
REMARK  209  A    between atoms: _514  and  _515
REMARK  210  A    between atoms: _524  and  _526
REMARK  211  A    between atoms: _526  and  _527
REMARK  212  A    between atoms: _529  and  _531
REMARK  213  A    between atoms: _531  and  _532
REMARK  214  A    between atoms: _531  and  _534
REMARK  215  A    between atoms: _534  and  _535
REMARK  216  A    between atoms: _535  and  _536
REMARK  217  A    between atoms: _539  and  _541
REMARK  218  A    between atoms: _541  and  _542
REMARK  219  A    between atoms: _541  and  _544
REMARK  220  A    between atoms: _544  and  _545
REMARK  221  A    between atoms: _548  and  _550
REMARK  222  A    between atoms: _550  and  _551
REMARK  223  A    between atoms: _550  and  _553
REMARK  224  A    between atoms: _553  and  _554
REMARK  225  A    between atoms: _557  and  _559
REMARK  226  A    between atoms: _559  and  _560
REMARK  227  A    between atoms: _559  and  _562
REMARK  228  A    between atoms: _562  and  _563
REMARK  229  A    between atoms: _563  and  _564
REMARK  230  A    between atoms: _564  and  _565
REMARK  231  A    between atoms: _574  and  _576
REMARK  232  A    between atoms: _576  and  _577
REMARK  233  A    between atoms: _576  and  _579
REMARK  234  A    between atoms: _579  and  _580
REMARK  235  A    between atoms: _583  and  _585
REMARK  236  A    between atoms: _585  and  _586
REMARK  237  A    between atoms: _585  and  _588
REMARK  238  A    between atoms: _588  and  _589
REMARK  239  A    between atoms: _589  and  _590
REMARK  240  A    between atoms: _593  and  _595
REMARK  241  A    between atoms: _595  and  _596
REMARK  242  A    between atoms: _595  and  _598
REMARK  243  A    between atoms: _598  and  _599
REMARK  244  A    between atoms: _599  and  _600
REMARK  245  A    between atoms: _605  and  _607
REMARK  246  A    between atoms: _607  and  _608
REMARK  247  A    between atoms: _607  and  _610
REMARK  248  A    between atoms: _610  and  _611
REMARK  249  A    between atoms: _611  and  _612
REMARK  250  A    between atoms: _615  and  _617
REMARK  251  A    between atoms: _617  and  _618
REMARK  252  A    between atoms: _617  and  _620
REMARK  253  A    between atoms: _620  and  _621
REMARK  254  A    between atoms: _627  and  _629
REMARK  255  A    between atoms: _629  and  _630
REMARK  256  A    between atoms: _629  and  _632
REMARK  257  A    between atoms: _632  and  _633
REMARK  258  A    between atoms: _639  and  _641
REMARK  259  A    between atoms: _641  and  _642
REMARK  260  A    between atoms: _641  and  _644
REMARK  261  A    between atoms: _644  and  _645
REMARK  262  A    between atoms: _648  and  _650
REMARK  263  A    between atoms: _650  and  _651
REMARK  264  A    between atoms: _650  and  _653
REMARK  265  A    between atoms: _653  and  _654
REMARK  266  A    between atoms: _659  and  _660
REMARK  267  A    between atoms: _662  and  _664
REMARK  268  A    between atoms: _664  and  _665
REMARK  269  A    between atoms: _668  and  _670
REMARK  270  A    between atoms: _670  and  _671
REMARK  271  A    between atoms: _670  and  _673
REMARK  272  A    between atoms: _673  and  _674
REMARK  273  A    between atoms: _674  and  _675
REMARK  274  A    between atoms: _681  and  _682
REMARK  275  A    between atoms: _687  and  _689
REMARK  276  A    between atoms: _689  and  _690
REMARK  277  A    between atoms: _689  and  _692
REMARK  278  A    between atoms: _692  and  _693
REMARK  279  A    between atoms: _696  and  _698
REMARK  280  A    between atoms: _698  and  _699
REMARK  281  A    between atoms: _698  and  _701
REMARK  282  A    between atoms: _701  and  _702
REMARK  283  A    between atoms: _702  and  _703
REMARK  284  A    between atoms: _706  and  _708
REMARK  285  A    between atoms: _708  and  _709
REMARK  286  A    between atoms: _708  and  _711
REMARK                            x       y       z     vdW  Elec       q    Type
REMARK                         _______ _______ _______ _____ _____    ______ ____
ROOT
ATOM      1  CA  LYS A   9      23.113 113.032  13.329  0.00  0.00    +0.149 C 
ENDROOT
BRANCH   1   3
ATOM      2  C   GLY A   8      22.289 114.588  14.960  0.00  0.00    +0.243 C 
ATOM      3  N   LYS A   9      22.506 113.323  14.615  0.00  0.00    -0.297 N 
ATOM      4  H   LYS A   9      22.244 112.550  15.259  0.00  0.00    +0.150 HD
ATOM      5  O   GLY A   8      22.526 115.525  14.195  0.00  0.00    -0.273 OA
BRANCH   2   6
ATOM      6  CA  GLY A   8      21.694 114.835  16.322  0.00  0.00    +0.176 C 
BRANCH   6   9
ATOM      7  C   ALA A   7      23.391 114.368  17.965  0.00  0.00    +0.241 C 
ATOM      8  O   ALA A   7      24.042 115.333  17.584  0.00  0.00    -0.273 OA
ATOM      9  N   GLY A   8      22.249 114.018  17.392  0.00  0.00    -0.295 N 
ATOM     10  H   GLY A   8      21.750 113.161  17.706  0.00  0.00    +0.150 HD
BRANCH   7  11
ATOM     11  CA  ALA A   7      23.894 113.494  19.102  0.00  0.00    +0.149 C 
ATOM     12  CB  ALA A   7      25.112 112.724  18.632  0.00  0.00    +0.031 C 
BRANCH  11  15
ATOM     13  C   GLY A   6      21.867 112.984  20.390  0.00  0.00    +0.243 C 
ATOM     14  O   GLY A   6      21.776 114.136  20.796  0.00  0.00    -0.273 OA
ATOM     15  N   ALA A   7      22.852 112.582  19.584  0.00  0.00    -0.297 N 
ATOM     16  H   ALA A   7      22.881 111.586  19.287  0.00  0.00    +0.150 HD
BRANCH  13  17
ATOM     17  CA  GLY A   6      20.823 111.959  20.819  0.00  0.00    +0.176 C 
BRANCH  17  20
ATOM     18  C   GLU A   5      21.718 109.749  20.852  0.00  0.00    +0.241 C 
ATOM     19  O   GLU A   5      22.186 109.957  21.984  0.00  0.00    -0.273 OA
ATOM     20  N   GLY A   6      21.029 110.668  20.197  0.00  0.00    -0.295 N 
ATOM     21  H   GLY A   6      20.642 110.467  19.253  0.00  0.00    +0.150 HD
BRANCH  18  22
ATOM     22  CA  GLU A   5      21.942 108.401  20.140  0.00  0.00    +0.149 C 
BRANCH  22  24
ATOM     23  C   LEU A   4      24.328 108.866  20.041  0.00  0.00    +0.241 C 
ATOM     24  N   GLU A   5      23.332 108.105  20.503  0.00  0.00    -0.297 N 
ATOM     25  H   GLU A   5      23.543 107.298  21.124  0.00  0.00    +0.150 HD
ATOM     26  O   LEU A   4      24.154 109.750  19.190  0.00  0.00    -0.273 OA
BRANCH  23  27
ATOM     27  CA  LEU A   4      25.733 108.551  20.553  0.00  0.00    +0.149 C 
BRANCH  27  29
ATOM     28  C   GLY A   3      26.869 108.887  18.453  0.00  0.00    +0.243 C 
ATOM     29  N   LEU A   4      26.684 109.258  19.714  0.00  0.00    -0.297 N 
ATOM     30  H   LEU A   4      27.222 110.058  20.103  0.00  0.00    +0.150 HD
ATOM     31  O   GLY A   3      26.284 107.912  17.958  0.00  0.00    -0.273 OA
BRANCH  28  32
ATOM     32  CA  GLY A   3      27.853 109.695  17.626  0.00  0.00    +0.176 C 
BRANCH  32  34
ATOM     33  C   GLU A   2      28.482 109.754  15.298  0.00  0.00    +0.241 C 
ATOM     34  N   GLY A   3      28.147 109.047  16.368  0.00  0.00    -0.295 N 
ATOM     35  H   GLY A   3      28.095 108.010  16.301  0.00  0.00    +0.150 HD
ATOM     36  O   GLU A   2      28.578 110.962  15.293  0.00  0.00    -0.273 OA
BRANCH  33  37
ATOM     37  CA  GLU A   2      28.765 108.969  14.062  0.00  0.00    +0.149 C 
BRANCH  37  39
ATOM     38  C   ILE A   1      28.085 109.482  11.768  0.00  0.00    +0.238 C 
ATOM     39  N   GLU A   2      28.766 109.803  12.865  0.00  0.00    -0.297 N 
ATOM     40  H   GLU A   2      29.321 110.683  12.869  0.00  0.00    +0.150 HD
ATOM     41  O   ILE A   1      27.368 108.481  11.676  0.00  0.00    -0.274 OA
BRANCH  38  42
ATOM     42  CA  ILE A   1      28.238 110.413  10.588  0.00  0.00    +0.145 C 
BRANCH  42  43
ATOM     43  CB  ILE A   1      27.011 111.317  10.430  0.00  0.00    +0.025 C 
ATOM     44  CG2 ILE A   1      26.858 112.196  11.635  0.00  0.00    +0.002 C 
BRANCH  43  45
ATOM     45  CG1 ILE A   1      27.158 112.142   9.149  0.00  0.00    +0.002 C 
ATOM     46  CD1 ILE A   1      25.977 113.050   8.836  0.00  0.00    +0.000 C 
ENDBRANCH  43  45
ENDBRANCH  42  43
BRANCH  42  47
ATOM     47  N   ILE A   1      28.395 109.555   9.424  0.00  0.00    -0.238 NA
ATOM     48  H   ILE A   1      27.597 108.970   9.104  0.00  0.00    +0.142 HD
ENDBRANCH  42  47
ENDBRANCH  38  42
ENDBRANCH  37  39
BRANCH  37  49
ATOM     49  CB  GLU A   2      30.122 108.288  14.239  0.00  0.00    +0.041 C 
BRANCH  49  50
ATOM     50  CG  GLU A   2      30.416 107.294  13.151  0.00  0.00    +0.116 C 
BRANCH  50  51
ATOM     51  CD  GLU A   2      29.766 105.943  13.424  0.00  0.00    +0.365 C 
ATOM     52  OE2 GLU A   2      29.121 105.797  14.494  0.00  0.00    -0.246 OA
ATOM     53  OE1 GLU A   2      29.908 105.045  12.565  0.00  0.00    -0.246 OA
ENDBRANCH  50  51
ENDBRANCH  49  50
ENDBRANCH  37  49
ENDBRANCH  33  37
ENDBRANCH  32  34
ENDBRANCH  28  32
ENDBRANCH  27  29
BRANCH  27  54
ATOM     54  CB  LEU A   4      25.847 109.021  22.004  0.00  0.00    +0.029 C 
BRANCH  54  55
ATOM     55  CG  LEU A   4      27.093 108.630  22.823  0.00  0.00    +0.002 C 
ATOM     56  CD2 LEU A   4      26.990 109.326  24.174  0.00  0.00    +0.000 C 
ATOM     57  CD1 LEU A   4      27.192 107.111  23.028  0.00  0.00    +0.000 C 
ENDBRANCH  54  55
ENDBRANCH  27  54
ENDBRANCH  23  27
ENDBRANCH  22  24
BRANCH  22  58
ATOM     58  CB  GLU A   5      20.988 107.349  20.715  0.00  0.00    +0.041 C 
BRANCH  58  59
ATOM     59  CG  GLU A   5      21.062 105.999  20.024  0.00  0.00    +0.116 C 
BRANCH  59  60
ATOM     60  CD  GLU A   5      19.899 105.084  20.406  0.00  0.00    +0.365 C 
ATOM     61  OE2 GLU A   5      18.825 105.611  20.791  0.00  0.00    -0.246 OA
ATOM     62  OE1 GLU A   5      20.059 103.838  20.319  0.00  0.00    -0.246 OA
ENDBRANCH  59  60
ENDBRANCH  58  59
ENDBRANCH  22  58
ENDBRANCH  18  22
ENDBRANCH  17  20
ENDBRANCH  13  17
ENDBRANCH  11  15
ENDBRANCH   7  11
ENDBRANCH   6   9
ENDBRANCH   2   6
ENDBRANCH   1   3
BRANCH   1  63
ATOM     63  C   LYS A   9      22.264 113.329  12.115  0.00  0.00    +0.241 C 
ATOM     64  N   THR A  10      20.943 113.433  12.252  0.00  0.00    -0.295 N 
ATOM     65  H   THR A  10      20.490 113.308  13.180  0.00  0.00    +0.150 HD
ATOM     66  O   LYS A   9      22.805 113.464  11.033  0.00  0.00    -0.273 OA
BRANCH  64  67
ATOM     67  CA  THR A  10      20.147 113.729  11.059  0.00  0.00    +0.176 C 
BRANCH  67  68
ATOM     68  C   THR A  10      20.244 115.208  10.727  0.00  0.00    +0.243 C 
ATOM     69  N   THR A  11      20.245 116.028  11.758  0.00  0.00    -0.295 N 
ATOM     70  H   THR A  11      20.160 115.645  12.721  0.00  0.00    +0.150 HD
ATOM     71  O   THR A  10      20.340 115.598   9.565  0.00  0.00    -0.273 OA
BRANCH  69  72
ATOM     72  CA  THR A  11      20.364 117.460  11.563  0.00  0.00    +0.176 C 
BRANCH  72  73
ATOM     73  C   THR A  11      21.750 117.693  10.958  0.00  0.00    +0.243 C 
ATOM     74  N   ALA A  12      22.741 116.922  11.415  0.00  0.00    -0.297 N 
ATOM     75  H   ALA A  12      22.542 116.223  12.159  0.00  0.00    +0.150 HD
ATOM     76  O   THR A  11      21.917 118.545  10.084  0.00  0.00    -0.273 OA
BRANCH  74  77
ATOM     77  CA  ALA A  12      24.098 117.044  10.889  0.00  0.00    +0.149 C 
ATOM     78  CB  ALA A  12      25.062 116.121  11.658  0.00  0.00    +0.031 C 
BRANCH  77  79
ATOM     79  C   ALA A  12      24.105 116.688   9.409  0.00  0.00    +0.241 C 
ATOM     80  N   ARG A  13      23.397 115.625   9.040  0.00  0.00    -0.297 N 
ATOM     81  H   ARG A  13      22.869 115.080   9.751  0.00  0.00    +0.150 HD
ATOM     82  O   ALA A  12      24.735 117.374   8.596  0.00  0.00    -0.273 OA
BRANCH  80  83
ATOM     83  CA  ARG A  13      23.360 115.223   7.637  0.00  0.00    +0.149 C 
BRANCH  83  84
ATOM     84  C   ARG A  13      22.708 116.280   6.749  0.00  0.00    +0.241 C 
ATOM     85  N   ASN A  14      21.738 117.001   7.305  0.00  0.00    -0.298 N 
ATOM     86  H   ASN A  14      21.450 116.805   8.285  0.00  0.00    +0.150 HD
ATOM     87  O   ARG A  13      23.051 116.421   5.567  0.00  0.00    -0.273 OA
BRANCH  85  88
ATOM     88  CA  ASN A  14      21.067 118.072   6.552  0.00  0.00    +0.146 C 
BRANCH  88  89
ATOM     89  C   ASN A  14      22.154 119.117   6.199  0.00  0.00    +0.227 C 
ATOM     90  O   ASN A  14      22.240 119.564   5.061  0.00  0.00    -0.286 OA
ENDBRANCH  88  89
BRANCH  88  91
ATOM     91  CB  ASN A  14      19.957 118.712   7.412  0.00  0.00    +0.112 C 
BRANCH  91  92
ATOM     92  CG  ASN A  14      18.771 117.747   7.673  0.00  0.00    +0.222 C 
ATOM     93  ND2 ASN A  14      17.909 118.092   8.649  0.00  0.00    -0.329 N 
ATOM     94 HD21 ASN A  14      18.059 118.967   9.190  0.00  0.00    +0.145 HD
ATOM     95 HD22 ASN A  14      17.093 117.483   8.861  0.00  0.00    +0.145 HD
ATOM     96  OD1 ASN A  14      18.640 116.717   6.998  0.00  0.00    -0.275 OA
ENDBRANCH  91  92
ENDBRANCH  88  91
ENDBRANCH  85  88
ENDBRANCH  83  84
BRANCH  83  97
ATOM     97  CB  ARG A  13      22.626 113.889   7.461  0.00  0.00    +0.033 C 
BRANCH  97  98
ATOM     98  CG  ARG A  13      22.812 113.324   6.063  0.00  0.00    +0.045 C 
BRANCH  98  99
ATOM     99  CD  ARG A  13      21.919 112.137   5.806  0.00  0.00    +0.174 C 
BRANCH  99 100
ATOM    100  NE  ARG A  13      20.504 112.494   5.786  0.00  0.00    -0.265 N 
ATOM    101  CZ  ARG A  13      19.525 111.626   6.004  0.00  0.00    +0.342 C 
ATOM    102  NH2 ARG A  13      19.818 110.357   6.254  0.00  0.00    -0.292 N 
ATOM    103 HH21 ARG A  13      19.055 109.671   6.426  0.00  0.00    +0.255 HD
ATOM    104 HH22 ARG A  13      20.811 110.048   6.278  0.00  0.00    +0.255 HD
ATOM    105  NH1 ARG A  13      18.256 112.021   5.986  0.00  0.00    -0.292 N 
ATOM    106 HH11 ARG A  13      17.495 111.333   6.158  0.00  0.00    +0.255 HD
ATOM    107 HH12 ARG A  13      18.024 113.018   5.800  0.00  0.00    +0.255 HD
ATOM    108  HE  ARG A  13      20.249 113.483   5.590  0.00  0.00    +0.259 HD
ENDBRANCH  99 100
ENDBRANCH  98  99
ENDBRANCH  97  98
ENDBRANCH  83  97
ENDBRANCH  80  83
ENDBRANCH  77  79
ENDBRANCH  74  77
ENDBRANCH  72  73
BRANCH  72 109
ATOM    109  CB  THR A  11      20.225 118.219  12.918  0.00  0.00    +0.137 C 
ATOM    110  CG2 THR A  11      20.706 119.689  12.773  0.00  0.00    +0.034 C 
BRANCH 109 111
ATOM    111  OG1 THR A  11      18.849 118.177  13.355  0.00  0.00    -0.382 OA
ATOM    112  HG1 THR A  11      18.570 117.235  13.474  0.00  0.00    +0.210 HD
ENDBRANCH 109 111
ENDBRANCH  72 109
ENDBRANCH  69  72
ENDBRANCH  67  68
BRANCH  67 113
ATOM    113  CB  THR A  10      18.675 113.310  11.240  0.00  0.00    +0.137 C 
ATOM    114  CG2 THR A  10      17.825 113.742  10.034  0.00  0.00    +0.034 C 
BRANCH 113 115
ATOM    115  OG1 THR A  10      18.626 111.876  11.339  0.00  0.00    -0.382 OA
ATOM    116  HG1 THR A  10      19.163 111.582  12.117  0.00  0.00    +0.210 HD
ENDBRANCH 113 115
ENDBRANCH  67 113
ENDBRANCH  64  67
ENDBRANCH   1  63
BRANCH   1 117
ATOM    117  CB  LYS A   9      23.581 111.580  13.269  0.00  0.00    +0.029 C 
BRANCH 117 118
ATOM    118  CG  LYS A   9      24.572 111.205  14.368  0.00  0.00    +0.000 C 
BRANCH 118 119
ATOM    119  CD  LYS A   9      25.087 109.777  14.164  0.00  0.00    -0.024 C 
BRANCH 119 120
ATOM    120  CE  LYS A   9      24.376 108.802  15.118  0.00  0.00    -0.086 C 
BRANCH 120 121
ATOM    121  NZ  LYS A   9      23.040 108.386  14.604  0.00  0.00    +0.380 N 
ATOM    122  HZ1 LYS A   9      22.599 107.730  15.280  0.00  0.00    -0.089 HD
ATOM    123  HZ2 LYS A   9      22.437 109.226  14.490  0.00  0.00    -0.089 HD
ATOM    124  HZ3 LYS A   9      23.155 107.913  13.685  0.00  0.00    -0.089 HD
ENDBRANCH 120 121
ENDBRANCH 119 120
ENDBRANCH 118 119
ENDBRANCH 117 118
ENDBRANCH   1 117
TORSDOF 53
REMARK  Name = ../refined-set-2016/4tmk/4tmk_pocket.pdb
REMARK  286 active torsions:
REMARK  status: ('A' for Active; 'I' for Inactive)
REMARK    1  A    between atoms: _1  and  _3
REMARK    2  A    between atoms: _3  and  _4
REMARK    3  A    between atoms: _3  and  _6
REMARK    4  A    between atoms: _6  and  _7
REMARK    5  A    between atoms: _10  and  _12
REMARK    6  A    between atoms: _12  and  _13
REMARK    7  A    between atoms: _12  and  _15
REMARK    8  A    between atoms: _15  and  _16
REMARK    9  A    between atoms: _16  and  _17
REMARK   10  A    between atoms: _20  and  _22
REMARK   11  A    between atoms: _22  and  _23
REMARK   12  A    between atoms: _25  and  _27
REMARK   13  A    between atoms: _27  and  _28
REMARK   14  A    between atoms: _27  and  _30
REMARK   15  A    between atoms: _30  and  _31
REMARK   16  A    between atoms: _34  and  _36
REMARK   17  A    between atoms: _36  and  _37
REMARK   18  A    between atoms: _36  and  _39
REMARK   19  A    between atoms: _39  and  _40
REMARK   20  A    between atoms: _40  and  _41
REMARK   21  A    between atoms: _44  and  _46
REMARK   22  A    between atoms: _46  and  _47
REMARK   23  A    between atoms: _49  and  _51
REMARK   24  A    between atoms: _51  and  _52
REMARK   25  A    between atoms: _55  and  _57
REMARK   26  A    between atoms: _57  and  _58
REMARK   27  A    between atoms: _60  and  _62
REMARK   28  A    between atoms: _62  and  _63
REMARK   29  A    between atoms: _62  and  _65
REMARK   30  A    between atoms: _65  and  _66
REMARK   31  A    between atoms: _66  and  _67
REMARK   32  A    between atoms: _67  and  _68
REMARK   33  A    between atoms: _68  and  _69
REMARK   34  A    between atoms: _73  and  _75
REMARK   35  A    between atoms: _75  and  _76
REMARK   36  A    between atoms: _75  and  _78
REMARK   37  A    between atoms: _78  and  _79
REMARK   38  A    between atoms: _82  and  _84
REMARK   39  A    between atoms: _84  and  _85
REMARK   40  A    between atoms: _84  and  _87
REMARK   41  A    between atoms: _87  and  _88
REMARK   42  A    between atoms: _91  and  _93
REMARK   43  A    between atoms: _93  and  _94
REMARK   44  A    between atoms: _97  and  _99
REMARK   45  A    between atoms: _99  and  _100
REMARK   46  A    between atoms: _99  and  _102
REMARK   47  A    between atoms: _102  and  _103
REMARK   48  A    between atoms: _103  and  _104
REMARK   49  A    between atoms: _104  and  _105
REMARK   50  A    between atoms: _114  and  _116
REMARK   51  A    between atoms: _116  and  _117
REMARK   52  A    between atoms: _116  and  _119
REMARK   53  A    between atoms: _119  and  _120
REMARK   54  A    between atoms: _125  and  _127
REMARK   55  A    between atoms: _127  and  _128
REMARK   56  A    between atoms: _127  and  _130
REMARK   57  A    between atoms: _130  and  _131
REMARK   58  A    between atoms: _131  and  _132
REMARK   59  A    between atoms: _132  and  _133
REMARK   60  A    between atoms: _142  and  _144
REMARK   61  A    between atoms: _144  and  _145
REMARK   62  A    between atoms: _144  and  _147
REMARK   63  A    between atoms: _147  and  _148
REMARK   64  A    between atoms: _148  and  _149
REMARK   65  A    between atoms: _153  and  _154
REMARK   66  A    between atoms: _159  and  _161
REMARK   67  A    between atoms: _161  and  _162
REMARK   68  A    between atoms: _164  and  _166
REMARK   69  A    between atoms: _166  and  _167
REMARK   70  A    between atoms: _166  and  _169
REMARK   71  A    between atoms: _169  and  _170
REMARK   72  A    between atoms: _170  and  _171
REMARK   73  A    between atoms: _171  and  _172
REMARK   74  A    between atoms: _181  and  _183
REMARK   75  A    between atoms: _183  and  _184
REMARK   76  A    between atoms: _183  and  _186
REMARK   77  A    between atoms: _186  and  _187
REMARK   78  A    between atoms: _190  and  _192
REMARK   79  A    between atoms: _192  and  _193
REMARK   80  A    between atoms: _192  and  _195
REMARK   81  A    between atoms: _195  and  _196
REMARK   82  A    between atoms: _199  and  _201
REMARK   83  A    between atoms: _201  and  _202
REMARK   84  A    between atoms: _201  and  _204
REMARK   85  A    between atoms: _204  and  _205
REMARK   86  A    between atoms: _205  and  _206
REMARK   87  A    between atoms: _209  and  _211
REMARK   88  A    between atoms: _211  and  _212
REMARK   89  A    between atoms: _211  and  _214
REMARK   90  A    between atoms: _217  and  _219
REMARK   91  A    between atoms: _219  and  _220
REMARK   92  A    between atoms: _219  and  _222
REMARK   93  A    between atoms: _222  and  _223
REMARK   94  A    between atoms: _223  and  _224
REMARK   95  A    between atoms: _226  and  _228
REMARK   96  A    between atoms: _228  and  _229
REMARK   97  A    between atoms: _228  and  _231
REMARK   98  A    between atoms: _231  and  _232
REMARK   99  A    between atoms: _238  and  _240
REMARK  100  A    between atoms: _240  and  _241
REMARK  101  A    between atoms: _240  and  _243
REMARK  102  A    between atoms: _243  and  _244
REMARK  103  A    between atoms: _249  and  _250
REMARK  104  A    between atoms: _252  and  _254
REMARK  105  A    between atoms: _254  and  _255
REMARK  106  A    between atoms: _258  and  _260
REMARK  107  A    between atoms: _260  and  _261
REMARK  108  A    between atoms: _260  and  _263
REMARK  109  A    between atoms: _263  and  _264
REMARK  110  A    between atoms: _264  and  _265
REMARK  111  A    between atoms: _265  and  _266
REMARK  112  A    between atoms: _275  and  _277
REMARK  113  A    between atoms: _277  and  _278
REMARK  114  A    between atoms: _277  and  _280
REMARK  115  A    between atoms: _280  and  _281
REMARK  116  A    between atoms: _284  and  _286
REMARK  117  A    between atoms: _286  and  _287
REMARK  118  A    between atoms: _286  and  _289
REMARK  119  A    between atoms: _289  and  _290
REMARK  120  A    between atoms: _290  and  _291
REMARK  121  A    between atoms: _291  and  _292
REMARK  122  A    between atoms: _301  and  _303
REMARK  123  A    between atoms: _303  and  _304
REMARK  124  A    between atoms: _303  and  _306
REMARK  125  A    between atoms: _306  and  _307
REMARK  126  A    between atoms: _312  and  _314
REMARK  127  A    between atoms: _314  and  _315
REMARK  128  A    between atoms: _314  and  _317
REMARK  129  A    between atoms: _317  and  _318
REMARK  130  A    between atoms: _321  and  _323
REMARK  131  A    between atoms: _323  and  _324
REMARK  132  A    between atoms: _323  and  _326
REMARK  133  A    between atoms: _326  and  _327
REMARK  134  A    between atoms: _330  and  _332
REMARK  135  A    between atoms: _332  and  _333
REMARK  136  A    between atoms: _332  and  _335
REMARK  137  A    between atoms: _335  and  _336
REMARK  138  A    between atoms: _338  and  _340
REMARK  139  A    between atoms: _340  and  _341
REMARK  140  A    between atoms: _340  and  _343
REMARK  141  A    between atoms: _343  and  _344
REMARK  142  A    between atoms: _347  and  _349
REMARK  143  A    between atoms: _349  and  _350
REMARK  144  A    between atoms: _349  and  _352
REMARK  145  A    between atoms: _352  and  _353
REMARK  146  A    between atoms: _353  and  _354
REMARK  147  A    between atoms: _359  and  _361
REMARK  148  A    between atoms: _361  and  _362
REMARK  149  A    between atoms: _365  and  _367
REMARK  150  A    between atoms: _367  and  _368
REMARK  151  A    between atoms: _367  and  _370
REMARK  152  A    between atoms: _370  and  _371
REMARK  153  A    between atoms: _376  and  _377
REMARK  154  A    between atoms: _379  and  _381
REMARK  155  A    between atoms: _381  and  _382
REMARK  156  A    between atoms: _381  and  _384
REMARK  157  A    between atoms: _384  and  _385
REMARK  158  A    between atoms: _385  and  _386
REMARK  159  A    between atoms: _391  and  _393
REMARK  160  A    between atoms: _393  and  _394
REMARK  161  A    between atoms: _396  and  _398
REMARK  162  A    between atoms: _398  and  _399
REMARK  163  A    between atoms: _401  and  _403
REMARK  164  A    between atoms: _403  and  _404
REMARK  165  A    between atoms: _403  and  _406
REMARK  166  A    between atoms: _406  and  _407
REMARK  167  A    between atoms: _407  and  _408
REMARK  168  A    between atoms: _408  and  _409
REMARK  169  A    between atoms: _418  and  _420
REMARK  170  A    between atoms: _420  and  _421
REMARK  171  A    between atoms: _420  and  _423
REMARK  172  A    between atoms: _423  and  _424
REMARK  173  A    between atoms: _427  and  _429
REMARK  174  A    between atoms: _429  and  _430
REMARK  175  A    between atoms: _429  and  _432
REMARK  176  A    between atoms: _435  and  _437
REMARK  177  A    between atoms: _437  and  _438
REMARK  178  A    between atoms: _437  and  _440
REMARK  179  A    between atoms: _443  and  _445
REMARK  180  A    between atoms: _445  and  _446
REMARK  181  A    between atoms: _448  and  _450
REMARK  182  A    between atoms: _450  and  _451
REMARK  183  A    between atoms: _450  and  _453
REMARK  184  A    between atoms: _453  and  _454
REMARK  185  A    between atoms: _454  and  _455
REMARK  186  A    between atoms: _455  and  _456
REMARK  187  A    between atoms: _456  and  _457
REMARK  188  A    between atoms: _461  and  _463
REMARK  189  A    between atoms: _463  and  _464
REMARK  190  A    between atoms: _463  and  _466
REMARK  191  A    between atoms: _466  and  _467
REMARK  192  A    between atoms: _467  and  _468
REMARK  193  A    between atoms: _468  and  _469
REMARK  194  A    between atoms: _478  and  _480
REMARK  195  A    between atoms: _480  and  _481
REMARK  196  A    between atoms: _484  and  _486
REMARK  197  A    between atoms: _486  and  _487
REMARK  198  A    between atoms: _486  and  _489
REMARK  199  A    between atoms: _489  and  _490
REMARK  200  A    between atoms: _490  and  _491
REMARK  201  A    between atoms: _491  and  _492
REMARK  202  A    between atoms: _501  and  _503
REMARK  203  A    between atoms: _503  and  _504
REMARK  204  A    between atoms: _507  and  _509
REMARK  205  A    between atoms: _509  and  _510
REMARK  206  A    between atoms: _509  and  _512
REMARK  207  A    between atoms: _512  and  _513
REMARK  208  A    between atoms: _513  and  _514
REMARK  209  A    between atoms: _514  and  _515
REMARK  210  A    between atoms: _524  and  _526
REMARK  211  A    between atoms: _526  and  _527
REMARK  212  A    between atoms: _529  and  _531
REMARK  213  A    between atoms: _531  and  _532
REMARK  214  A    between atoms: _531  and  _534
REMARK  215  A    between atoms: _534  and  _535
REMARK  216  A    between atoms: _535  and  _536
REMARK  217  A    between atoms: _539  and  _541
REMARK  218  A    between atoms: _541  and  _542
REMARK  219  A    between atoms: _541  and  _544
REMARK  220  A    between atoms: _544  and  _545
REMARK  221  A    between atoms: _548  and  _550
REMARK  222  A    between atoms: _550  and  _551
REMARK  223  A    between atoms: _550  and  _553
REMARK  224  A    between atoms: _553  and  _554
REMARK  225  A    between atoms: _557  and  _559
REMARK  226  A    between atoms: _559  and  _560
REMARK  227  A    between atoms: _559  and  _562
REMARK  228  A    between atoms: _562  and  _563
REMARK  229  A    between atoms: _563  and  _564
REMARK  230  A    between atoms: _564  and  _565
REMARK  231  A    between atoms: _574  and  _576
REMARK  232  A    between atoms: _576  and  _577
REMARK  233  A    between atoms: _576  and  _579
REMARK  234  A    between atoms: _579  and  _580
REMARK  235  A    between atoms: _583  and  _585
REMARK  236  A    between atoms: _585  and  _586
REMARK  237  A    between atoms: _585  and  _588
REMARK  238  A    between atoms: _588  and  _589
REMARK  239  A    between atoms: _589  and  _590
REMARK  240  A    between atoms: _593  and  _595
REMARK  241  A    between atoms: _595  and  _596
REMARK  242  A    between atoms: _595  and  _598
REMARK  243  A    between atoms: _598  and  _599
REMARK  244  A    between atoms: _599  and  _600
REMARK  245  A    between atoms: _605  and  _607
REMARK  246  A    between atoms: _607  and  _608
REMARK  247  A    between atoms: _607  and  _610
REMARK  248  A    between atoms: _610  and  _611
REMARK  249  A    between atoms: _611  and  _612
REMARK  250  A    between atoms: _615  and  _617
REMARK  251  A    between atoms: _617  and  _618
REMARK  252  A    between atoms: _617  and  _620
REMARK  253  A    between atoms: _620  and  _621
REMARK  254  A    between atoms: _627  and  _629
REMARK  255  A    between atoms: _629  and  _630
REMARK  256  A    between atoms: _629  and  _632
REMARK  257  A    between atoms: _632  and  _633
REMARK  258  A    between atoms: _639  and  _641
REMARK  259  A    between atoms: _641  and  _642
REMARK  260  A    between atoms: _641  and  _644
REMARK  261  A    between atoms: _644  and  _645
REMARK  262  A    between atoms: _648  and  _650
REMARK  263  A    between atoms: _650  and  _651
REMARK  264  A    between atoms: _650  and  _653
REMARK  265  A    between atoms: _653  and  _654
REMARK  266  A    between atoms: _659  and  _660
REMARK  267  A    between atoms: _662  and  _664
REMARK  268  A    between atoms: _664  and  _665
REMARK  269  A    between atoms: _668  and  _670
REMARK  270  A    between atoms: _670  and  _671
REMARK  271  A    between atoms: _670  and  _673
REMARK  272  A    between atoms: _673  and  _674
REMARK  273  A    between atoms: _674  and  _675
REMARK  274  A    between atoms: _681  and  _682
REMARK  275  A    between atoms: _687  and  _689
REMARK  276  A    between atoms: _689  and  _690
REMARK  277  A    between atoms: _689  and  _692
REMARK  278  A    between atoms: _692  and  _693
REMARK  279  A    between atoms: _696  and  _698
REMARK  280  A    between atoms: _698  and  _699
REMARK  281  A    between atoms: _698  and  _701
REMARK  282  A    between atoms: _701  and  _702
REMARK  283  A    between atoms: _702  and  _703
REMARK  284  A    between atoms: _706  and  _708
REMARK  285  A    between atoms: _708  and  _709
REMARK  286  A    between atoms: _708  and  _711
REMARK                            x       y       z     vdW  Elec       q    Type
REMARK                         _______ _______ _______ _____ _____    ______ ____
ROOT
ATOM      1  CA  GLU A   2      22.955 101.084  10.177  0.00  0.00    +0.149 C 
ENDROOT
BRANCH   1   2
ATOM      2  C   GLU A   2      22.573 101.101  11.638  0.00  0.00    +0.244 C 
ATOM      3  O   GLU A   2      22.701 102.121  12.307  0.00  0.00    -0.273 OA
ATOM      4  N   PRO A   3      22.041  99.983  12.147  0.00  0.00    -0.272 N 
ATOM      5  CD  PRO A   3      21.644  99.838  13.555  0.00  0.00    +0.094 C 
ATOM      6  CG  PRO A   3      20.922  98.498  13.578  0.00  0.00    +0.024 C 
ATOM      7  CB  PRO A   3      21.560  97.722  12.457  0.00  0.00    +0.031 C 
ATOM      8  CA  PRO A   3      21.801  98.758  11.385  0.00  0.00    +0.152 C 
BRANCH   8   9
ATOM      9  C   PRO A   3      20.552  98.945  10.557  0.00  0.00    +0.241 C 
ATOM     10  O   PRO A   3      19.594  99.571  11.031  0.00  0.00    -0.273 OA
ATOM     11  N   GLY A   4      20.548  98.412   9.336  0.00  0.00    -0.296 N 
ATOM     12  H   GLY A   4      21.394  97.920   8.984  0.00  0.00    +0.150 HD
BRANCH  11  13
ATOM     13  CA  GLY A   4      19.360  98.515   8.488  0.00  0.00    +0.163 C 
BRANCH  13  14
ATOM     14  C   GLY A   4      19.692  98.730   7.031  0.00  0.00    +0.229 C 
ATOM     15  O   GLY A   4      20.836  98.529   6.626  0.00  0.00    -0.286 OA
ENDBRANCH  13  14
ENDBRANCH  11  13
ENDBRANCH   8   9
ENDBRANCH   1   2
BRANCH   1  17
ATOM     16  C   ARG A   1      21.843 102.473   8.524  0.00  0.00    +0.238 C 
ATOM     17  N   GLU A   2      22.591 102.362   9.615  0.00  0.00    -0.297 N 
ATOM     18  H   GLU A   2      22.927 103.228  10.082  0.00  0.00    +0.150 HD
ATOM     19  O   ARG A   1      21.426 101.519   7.904  0.00  0.00    -0.274 OA
BRANCH  16  20
ATOM     20  CA  ARG A   1      21.527 103.884   8.047  0.00  0.00    +0.145 C 
BRANCH  20  21
ATOM     21  N   ARG A   1      21.579 103.845   6.593  0.00  0.00    -0.238 NA
ATOM     22  H   ARG A   1      21.131 103.047   6.099  0.00  0.00    +0.142 HD
ENDBRANCH  20  21
BRANCH  20  23
ATOM     23  CB  ARG A   1      20.128 104.295   8.524  0.00  0.00    +0.030 C 
BRANCH  23  24
ATOM     24  CG  ARG A   1      19.028 103.292   8.133  0.00  0.00    +0.045 C 
BRANCH  24  25
ATOM     25  CD  ARG A   1      18.528 102.461   9.325  0.00  0.00    +0.174 C 
BRANCH  25  26
ATOM     26  NE  ARG A   1      18.187 103.337  10.442  0.00  0.00    -0.265 N 
ATOM     27  CZ  ARG A   1      18.732 103.262  11.652  0.00  0.00    +0.342 C 
ATOM     28  NH2 ARG A   1      18.385 104.129  12.603  0.00  0.00    -0.292 N 
ATOM     29 HH21 ARG A   1      18.815 104.065  13.548  0.00  0.00    +0.255 HD
ATOM     30 HH22 ARG A   1      17.684 104.870  12.400  0.00  0.00    +0.255 HD
ATOM     31  NH1 ARG A   1      19.647 102.338  11.898  0.00  0.00    -0.292 N 
ATOM     32 HH11 ARG A   1      20.079 102.272  12.842  0.00  0.00    +0.255 HD
ATOM     33 HH12 ARG A   1      19.934 101.678  11.147  0.00  0.00    +0.255 HD
ATOM     34  HE  ARG A   1      17.468 104.071  10.280  0.00  0.00    +0.259 HD
ENDBRANCH  25  26
ENDBRANCH  24  25
ENDBRANCH  23  24
ENDBRANCH  20  23
ENDBRANCH  16  20
ENDBRANCH   1  17
BRANCH   1  35
ATOM     35  CB  GLU A   2      24.467 100.845  10.030  0.00  0.00    +0.041 C 
BRANCH  35  36
ATOM     36  CG  GLU A   2      24.929 100.652   8.594  0.00  0.00    +0.116 C 
BRANCH  36  37
ATOM     37  CD  GLU A   2      26.394 100.186   8.519  0.00  0.00    +0.365 C 
ATOM     38  OE2 GLU A   2      26.864  99.559   9.490  0.00  0.00    -0.246 OA
ATOM     39  OE1 GLU A   2      27.075 100.445   7.505  0.00  0.00    -0.246 OA
ENDBRANCH  36  37
ENDBRANCH  35  36
ENDBRANCH   1  35
TORSDOF 14
REMARK  Name = ../refined-set-2016/4tmk/4tmk_pocket.pdb
REMARK  286 active torsions:
REMARK  status: ('A' for Active; 'I' for Inactive)
REMARK    1  A    between atoms: _1  and  _3
REMARK    2  A    between atoms: _3  and  _4
REMARK    3  A    between atoms: _3  and  _6
REMARK    4  A    between atoms: _6  and  _7
REMARK    5  A    between atoms: _10  and  _12
REMARK    6  A    between atoms: _12  and  _13
REMARK    7  A    between atoms: _12  and  _15
REMARK    8  A    between atoms: _15  and  _16
REMARK    9  A    between atoms: _16  and  _17
REMARK   10  A    between atoms: _20  and  _22
REMARK   11  A    between atoms: _22  and  _23
REMARK   12  A    between atoms: _25  and  _27
REMARK   13  A    between atoms: _27  and  _28
REMARK   14  A    between atoms: _27  and  _30
REMARK   15  A    between atoms: _30  and  _31
REMARK   16  A    between atoms: _34  and  _36
REMARK   17  A    between atoms: _36  and  _37
REMARK   18  A    between atoms: _36  and  _39
REMARK   19  A    between atoms: _39  and  _40
REMARK   20  A    between atoms: _40  and  _41
REMARK   21  A    between atoms: _44  and  _46
REMARK   22  A    between atoms: _46  and  _47
REMARK   23  A    between atoms: _49  and  _51
REMARK   24  A    between atoms: _51  and  _52
REMARK   25  A    between atoms: _55  and  _57
REMARK   26  A    between atoms: _57  and  _58
REMARK   27  A    between atoms: _60  and  _62
REMARK   28  A    between atoms: _62  and  _63
REMARK   29  A    between atoms: _62  and  _65
REMARK   30  A    between atoms: _65  and  _66
REMARK   31  A    between atoms: _66  and  _67
REMARK   32  A    between atoms: _67  and  _68
REMARK   33  A    between atoms: _68  and  _69
REMARK   34  A    between atoms: _73  and  _75
REMARK   35  A    between atoms: _75  and  _76
REMARK   36  A    between atoms: _75  and  _78
REMARK   37  A    between atoms: _78  and  _79
REMARK   38  A    between atoms: _82  and  _84
REMARK   39  A    between atoms: _84  and  _85
REMARK   40  A    between atoms: _84  and  _87
REMARK   41  A    between atoms: _87  and  _88
REMARK   42  A    between atoms: _91  and  _93
REMARK   43  A    between atoms: _93  and  _94
REMARK   44  A    between atoms: _97  and  _99
REMARK   45  A    between atoms: _99  and  _100
REMARK   46  A    between atoms: _99  and  _102
REMARK   47  A    between atoms: _102  and  _103
REMARK   48  A    between atoms: _103  and  _104
REMARK   49  A    between atoms: _104  and  _105
REMARK   50  A    between atoms: _114  and  _116
REMARK   51  A    between atoms: _116  and  _117
REMARK   52  A    between atoms: _116  and  _119
REMARK   53  A    between atoms: _119  and  _120
REMARK   54  A    between atoms: _125  and  _127
REMARK   55  A    between atoms: _127  and  _128
REMARK   56  A    between atoms: _127  and  _130
REMARK   57  A    between atoms: _130  and  _131
REMARK   58  A    between atoms: _131  and  _132
REMARK   59  A    between atoms: _132  and  _133
REMARK   60  A    between atoms: _142  and  _144
REMARK   61  A    between atoms: _144  and  _145
REMARK   62  A    between atoms: _144  and  _147
REMARK   63  A    between atoms: _147  and  _148
REMARK   64  A    between atoms: _148  and  _149
REMARK   65  A    between atoms: _153  and  _154
REMARK   66  A    between atoms: _159  and  _161
REMARK   67  A    between atoms: _161  and  _162
REMARK   68  A    between atoms: _164  and  _166
REMARK   69  A    between atoms: _166  and  _167
REMARK   70  A    between atoms: _166  and  _169
REMARK   71  A    between atoms: _169  and  _170
REMARK   72  A    between atoms: _170  and  _171
REMARK   73  A    between atoms: _171  and  _172
REMARK   74  A    between atoms: _181  and  _183
REMARK   75  A    between atoms: _183  and  _184
REMARK   76  A    between atoms: _183  and  _186
REMARK   77  A    between atoms: _186  and  _187
REMARK   78  A    between atoms: _190  and  _192
REMARK   79  A    between atoms: _192  and  _193
REMARK   80  A    between atoms: _192  and  _195
REMARK   81  A    between atoms: _195  and  _196
REMARK   82  A    between atoms: _199  and  _201
REMARK   83  A    between atoms: _201  and  _202
REMARK   84  A    between atoms: _201  and  _204
REMARK   85  A    between atoms: _204  and  _205
REMARK   86  A    between atoms: _205  and  _206
REMARK   87  A    between atoms: _209  and  _211
REMARK   88  A    between atoms: _211  and  _212
REMARK   89  A    between atoms: _211  and  _214
REMARK   90  A    between atoms: _217  and  _219
REMARK   91  A    between atoms: _219  and  _220
REMARK   92  A    between atoms: _219  and  _222
REMARK   93  A    between atoms: _222  and  _223
REMARK   94  A    between atoms: _223  and  _224
REMARK   95  A    between atoms: _226  and  _228
REMARK   96  A    between atoms: _228  and  _229
REMARK   97  A    between atoms: _228  and  _231
REMARK   98  A    between atoms: _231  and  _232
REMARK   99  A    between atoms: _238  and  _240
REMARK  100  A    between atoms: _240  and  _241
REMARK  101  A    between atoms: _240  and  _243
REMARK  102  A    between atoms: _243  and  _244
REMARK  103  A    between atoms: _249  and  _250
REMARK  104  A    between atoms: _252  and  _254
REMARK  105  A    between atoms: _254  and  _255
REMARK  106  A    between atoms: _258  and  _260
REMARK  107  A    between atoms: _260  and  _261
REMARK  108  A    between atoms: _260  and  _263
REMARK  109  A    between atoms: _263  and  _264
REMARK  110  A    between atoms: _264  and  _265
REMARK  111  A    between atoms: _265  and  _266
REMARK  112  A    between atoms: _275  and  _277
REMARK  113  A    between atoms: _277  and  _278
REMARK  114  A    between atoms: _277  and  _280
REMARK  115  A    between atoms: _280  and  _281
REMARK  116  A    between atoms: _284  and  _286
REMARK  117  A    between atoms: _286  and  _287
REMARK  118  A    between atoms: _286  and  _289
REMARK  119  A    between atoms: _289  and  _290
REMARK  120  A    between atoms: _290  and  _291
REMARK  121  A    between atoms: _291  and  _292
REMARK  122  A    between atoms: _301  and  _303
REMARK  123  A    between atoms: _303  and  _304
REMARK  124  A    between atoms: _303  and  _306
REMARK  125  A    between atoms: _306  and  _307
REMARK  126  A    between atoms: _312  and  _314
REMARK  127  A    between atoms: _314  and  _315
REMARK  128  A    between atoms: _314  and  _317
REMARK  129  A    between atoms: _317  and  _318
REMARK  130  A    between atoms: _321  and  _323
REMARK  131  A    between atoms: _323  and  _324
REMARK  132  A    between atoms: _323  and  _326
REMARK  133  A    between atoms: _326  and  _327
REMARK  134  A    between atoms: _330  and  _332
REMARK  135  A    between atoms: _332  and  _333
REMARK  136  A    between atoms: _332  and  _335
REMARK  137  A    between atoms: _335  and  _336
REMARK  138  A    between atoms: _338  and  _340
REMARK  139  A    between atoms: _340  and  _341
REMARK  140  A    between atoms: _340  and  _343
REMARK  141  A    between atoms: _343  and  _344
REMARK  142  A    between atoms: _347  and  _349
REMARK  143  A    between atoms: _349  and  _350
REMARK  144  A    between atoms: _349  and  _352
REMARK  145  A    between atoms: _352  and  _353
REMARK  146  A    between atoms: _353  and  _354
REMARK  147  A    between atoms: _359  and  _361
REMARK  148  A    between atoms: _361  and  _362
REMARK  149  A    between atoms: _365  and  _367
REMARK  150  A    between atoms: _367  and  _368
REMARK  151  A    between atoms: _367  and  _370
REMARK  152  A    between atoms: _370  and  _371
REMARK  153  A    between atoms: _376  and  _377
REMARK  154  A    between atoms: _379  and  _381
REMARK  155  A    between atoms: _381  and  _382
REMARK  156  A    between atoms: _381  and  _384
REMARK  157  A    between atoms: _384  and  _385
REMARK  158  A    between atoms: _385  and  _386
REMARK  159  A    between atoms: _391  and  _393
REMARK  160  A    between atoms: _393  and  _394
REMARK  161  A    between atoms: _396  and  _398
REMARK  162  A    between atoms: _398  and  _399
REMARK  163  A    between atoms: _401  and  _403
REMARK  164  A    between atoms: _403  and  _404
REMARK  165  A    between atoms: _403  and  _406
REMARK  166  A    between atoms: _406  and  _407
REMARK  167  A    between atoms: _407  and  _408
REMARK  168  A    between atoms: _408  and  _409
REMARK  169  A    between atoms: _418  and  _420
REMARK  170  A    between atoms: _420  and  _421
REMARK  171  A    between atoms: _420  and  _423
REMARK  172  A    between atoms: _423  and  _424
REMARK  173  A    between atoms: _427  and  _429
REMARK  174  A    between atoms: _429  and  _430
REMARK  175  A    between atoms: _429  and  _432
REMARK  176  A    between atoms: _435  and  _437
REMARK  177  A    between atoms: _437  and  _438
REMARK  178  A    between atoms: _437  and  _440
REMARK  179  A    between atoms: _443  and  _445
REMARK  180  A    between atoms: _445  and  _446
REMARK  181  A    between atoms: _448  and  _450
REMARK  182  A    between atoms: _450  and  _451
REMARK  183  A    between atoms: _450  and  _453
REMARK  184  A    between atoms: _453  and  _454
REMARK  185  A    between atoms: _454  and  _455
REMARK  186  A    between atoms: _455  and  _456
REMARK  187  A    between atoms: _456  and  _457
REMARK  188  A    between atoms: _461  and  _463
REMARK  189  A    between atoms: _463  and  _464
REMARK  190  A    between atoms: _463  and  _466
REMARK  191  A    between atoms: _466  and  _467
REMARK  192  A    between atoms: _467  and  _468
REMARK  193  A    between atoms: _468  and  _469
REMARK  194  A    between atoms: _478  and  _480
REMARK  195  A    between atoms: _480  and  _481
REMARK  196  A    between atoms: _484  and  _486
REMARK  197  A    between atoms: _486  and  _487
REMARK  198  A    between atoms: _486  and  _489
REMARK  199  A    between atoms: _489  and  _490
REMARK  200  A    between atoms: _490  and  _491
REMARK  201  A    between atoms: _491  and  _492
REMARK  202  A    between atoms: _501  and  _503
REMARK  203  A    between atoms: _503  and  _504
REMARK  204  A    between atoms: _507  and  _509
REMARK  205  A    between atoms: _509  and  _510
REMARK  206  A    between atoms: _509  and  _512
REMARK  207  A    between atoms: _512  and  _513
REMARK  208  A    between atoms: _513  and  _514
REMARK  209  A    between atoms: _514  and  _515
REMARK  210  A    between atoms: _524  and  _526
REMARK  211  A    between atoms: _526  and  _527
REMARK  212  A    between atoms: _529  and  _531
REMARK  213  A    between atoms: _531  and  _532
REMARK  214  A    between atoms: _531  and  _534
REMARK  215  A    between atoms: _534  and  _535
REMARK  216  A    between atoms: _535  and  _536
REMARK  217  A    between atoms: _539  and  _541
REMARK  218  A    between atoms: _541  and  _542
REMARK  219  A    between atoms: _541  and  _544
REMARK  220  A    between atoms: _544  and  _545
REMARK  221  A    between atoms: _548  and  _550
REMARK  222  A    between atoms: _550  and  _551
REMARK  223  A    between atoms: _550  and  _553
REMARK  224  A    between atoms: _553  and  _554
REMARK  225  A    between atoms: _557  and  _559
REMARK  226  A    between atoms: _559  and  _560
REMARK  227  A    between atoms: _559  and  _562
REMARK  228  A    between atoms: _562  and  _563
REMARK  229  A    between atoms: _563  and  _564
REMARK  230  A    between atoms: _564  and  _565
REMARK  231  A    between atoms: _574  and  _576
REMARK  232  A    between atoms: _576  and  _577
REMARK  233  A    between atoms: _576  and  _579
REMARK  234  A    between atoms: _579  and  _580
REMARK  235  A    between atoms: _583  and  _585
REMARK  236  A    between atoms: _585  and  _586
REMARK  237  A    between atoms: _585  and  _588
REMARK  238  A    between atoms: _588  and  _589
REMARK  239  A    between atoms: _589  and  _590
REMARK  240  A    between atoms: _593  and  _595
REMARK  241  A    between atoms: _595  and  _596
REMARK  242  A    between atoms: _595  and  _598
REMARK  243  A    between atoms: _598  and  _599
REMARK  244  A    between atoms: _599  and  _600
REMARK  245  A    between atoms: _605  and  _607
REMARK  246  A    between atoms: _607  and  _608
REMARK  247  A    between atoms: _607  and  _610
REMARK  248  A    between atoms: _610  and  _611
REMARK  249  A    between atoms: _611  and  _612
REMARK  250  A    between atoms: _615  and  _617
REMARK  251  A    between atoms: _617  and  _618
REMARK  252  A    between atoms: _617  and  _620
REMARK  253  A    between atoms: _620  and  _621
REMARK  254  A    between atoms: _627  and  _629
REMARK  255  A    between atoms: _629  and  _630
REMARK  256  A    between atoms: _629  and  _632
REMARK  257  A    between atoms: _632  and  _633
REMARK  258  A    between atoms: _639  and  _641
REMARK  259  A    between atoms: _641  and  _642
REMARK  260  A    between atoms: _641  and  _644
REMARK  261  A    between atoms: _644  and  _645
REMARK  262  A    between atoms: _648  and  _650
REMARK  263  A    between atoms: _650  and  _651
REMARK  264  A    between atoms: _650  and  _653
REMARK  265  A    between atoms: _653  and  _654
REMARK  266  A    between atoms: _659  and  _660
REMARK  267  A    between atoms: _662  and  _664
REMARK  268  A    between atoms: _664  and  _665
REMARK  269  A    between atoms: _668  and  _670
REMARK  270  A    between atoms: _670  and  _671
REMARK  271  A    between atoms: _670  and  _673
REMARK  272  A    between atoms: _673  and  _674
REMARK  273  A    between atoms: _674  and  _675
REMARK  274  A    between atoms: _681  and  _682
REMARK  275  A    between atoms: _687  and  _689
REMARK  276  A    between atoms: _689  and  _690
REMARK  277  A    between atoms: _689  and  _692
REMARK  278  A    between atoms: _692  and  _693
REMARK  279  A    between atoms: _696  and  _698
REMARK  280  A    between atoms: _698  and  _699
REMARK  281  A    between atoms: _698  and  _701
REMARK  282  A    between atoms: _701  and  _702
REMARK  283  A    between atoms: _702  and  _703
REMARK  284  A    between atoms: _706  and  _708
REMARK  285  A    between atoms: _708  and  _709
REMARK  286  A    between atoms: _708  and  _711
REMARK                            x       y       z     vdW  Elec       q    Type
REMARK                         _______ _______ _______ _____ _____    ______ ____
ROOT
ATOM      1  NE  ARG A   1      16.222 100.125  12.458  0.00  0.00    -0.265 N 
ATOM      2  HE  ARG A   1      16.377 100.259  13.478  0.00  0.00    +0.259 HD
ATOM      3  CZ  ARG A   1      15.599 101.087  11.797  0.00  0.00    +0.342 C 
ATOM      4  NH2 ARG A   1      15.203 102.172  12.447  0.00  0.00    -0.292 N 
ATOM      5 HH21 ARG A   1      15.383 102.261  13.467  0.00  0.00    +0.255 HD
ATOM      6 HH22 ARG A   1      14.712 102.934  11.937  0.00  0.00    +0.255 HD
ATOM      7  NH1 ARG A   1      15.374 100.974  10.496  0.00  0.00    -0.292 N 
ATOM      8 HH11 ARG A   1      15.688 100.124   9.986  0.00  0.00    +0.255 HD
ATOM      9 HH12 ARG A   1      14.883 101.736   9.985  0.00  0.00    +0.255 HD
ENDROOT
BRANCH   1  10
ATOM     10  CD  ARG A   1      16.705  98.893  11.854  0.00  0.00    +0.174 C 
BRANCH  10  11
ATOM     11  CG  ARG A   1      17.202  97.897  12.911  0.00  0.00    +0.045 C 
BRANCH  11  12
ATOM     12  CB  ARG A   1      17.643  96.607  12.236  0.00  0.00    +0.029 C 
BRANCH  12  13
ATOM     13  CA  ARG A   1      18.140  95.501  13.170  0.00  0.00    +0.133 C 
BRANCH  13  14
ATOM     14  N   ARG A   1      18.335  94.294  12.390  0.00  0.00    -0.239 NA
ATOM     15  H   ARG A   1      18.233  94.339  11.356  0.00  0.00    +0.142 HD
ENDBRANCH  13  14
BRANCH  13  16
ATOM     16  C   ARG A   1      17.122  95.223  14.280  0.00  0.00    +0.224 C 
ATOM     17  O   ARG A   1      17.346  95.549  15.452  0.00  0.00    -0.287 OA
ENDBRANCH  13  16
ENDBRANCH  12  13
ENDBRANCH  11  12
ENDBRANCH  10  11
ENDBRANCH   1  10
TORSDOF 6
REMARK  Name = ../refined-set-2016/4tmk/4tmk_pocket.pdb
REMARK  286 active torsions:
REMARK  status: ('A' for Active; 'I' for Inactive)
REMARK    1  A    between atoms: _1  and  _3
REMARK    2  A    between atoms: _3  and  _4
REMARK    3  A    between atoms: _3  and  _6
REMARK    4  A    between atoms: _6  and  _7
REMARK    5  A    between atoms: _10  and  _12
REMARK    6  A    between atoms: _12  and  _13
REMARK    7  A    between atoms: _12  and  _15
REMARK    8  A    between atoms: _15  and  _16
REMARK    9  A    between atoms: _16  and  _17
REMARK   10  A    between atoms: _20  and  _22
REMARK   11  A    between atoms: _22  and  _23
REMARK   12  A    between atoms: _25  and  _27
REMARK   13  A    between atoms: _27  and  _28
REMARK   14  A    between atoms: _27  and  _30
REMARK   15  A    between atoms: _30  and  _31
REMARK   16  A    between atoms: _34  and  _36
REMARK   17  A    between atoms: _36  and  _37
REMARK   18  A    between atoms: _36  and  _39
REMARK   19  A    between atoms: _39  and  _40
REMARK   20  A    between atoms: _40  and  _41
REMARK   21  A    between atoms: _44  and  _46
REMARK   22  A    between atoms: _46  and  _47
REMARK   23  A    between atoms: _49  and  _51
REMARK   24  A    between atoms: _51  and  _52
REMARK   25  A    between atoms: _55  and  _57
REMARK   26  A    between atoms: _57  and  _58
REMARK   27  A    between atoms: _60  and  _62
REMARK   28  A    between atoms: _62  and  _63
REMARK   29  A    between atoms: _62  and  _65
REMARK   30  A    between atoms: _65  and  _66
REMARK   31  A    between atoms: _66  and  _67
REMARK   32  A    between atoms: _67  and  _68
REMARK   33  A    between atoms: _68  and  _69
REMARK   34  A    between atoms: _73  and  _75
REMARK   35  A    between atoms: _75  and  _76
REMARK   36  A    between atoms: _75  and  _78
REMARK   37  A    between atoms: _78  and  _79
REMARK   38  A    between atoms: _82  and  _84
REMARK   39  A    between atoms: _84  and  _85
REMARK   40  A    between atoms: _84  and  _87
REMARK   41  A    between atoms: _87  and  _88
REMARK   42  A    between atoms: _91  and  _93
REMARK   43  A    between atoms: _93  and  _94
REMARK   44  A    between atoms: _97  and  _99
REMARK   45  A    between atoms: _99  and  _100
REMARK   46  A    between atoms: _99  and  _102
REMARK   47  A    between atoms: _102  and  _103
REMARK   48  A    between atoms: _103  and  _104
REMARK   49  A    between atoms: _104  and  _105
REMARK   50  A    between atoms: _114  and  _116
REMARK   51  A    between atoms: _116  and  _117
REMARK   52  A    between atoms: _116  and  _119
REMARK   53  A    between atoms: _119  and  _120
REMARK   54  A    between atoms: _125  and  _127
REMARK   55  A    between atoms: _127  and  _128
REMARK   56  A    between atoms: _127  and  _130
REMARK   57  A    between atoms: _130  and  _131
REMARK   58  A    between atoms: _131  and  _132
REMARK   59  A    between atoms: _132  and  _133
REMARK   60  A    between atoms: _142  and  _144
REMARK   61  A    between atoms: _144  and  _145
REMARK   62  A    between atoms: _144  and  _147
REMARK   63  A    between atoms: _147  and  _148
REMARK   64  A    between atoms: _148  and  _149
REMARK   65  A    between atoms: _153  and  _154
REMARK   66  A    between atoms: _159  and  _161
REMARK   67  A    between atoms: _161  and  _162
REMARK   68  A    between atoms: _164  and  _166
REMARK   69  A    between atoms: _166  and  _167
REMARK   70  A    between atoms: _166  and  _169
REMARK   71  A    between atoms: _169  and  _170
REMARK   72  A    between atoms: _170  and  _171
REMARK   73  A    between atoms: _171  and  _172
REMARK   74  A    between atoms: _181  and  _183
REMARK   75  A    between atoms: _183  and  _184
REMARK   76  A    between atoms: _183  and  _186
REMARK   77  A    between atoms: _186  and  _187
REMARK   78  A    between atoms: _190  and  _192
REMARK   79  A    between atoms: _192  and  _193
REMARK   80  A    between atoms: _192  and  _195
REMARK   81  A    between atoms: _195  and  _196
REMARK   82  A    between atoms: _199  and  _201
REMARK   83  A    between atoms: _201  and  _202
REMARK   84  A    between atoms: _201  and  _204
REMARK   85  A    between atoms: _204  and  _205
REMARK   86  A    between atoms: _205  and  _206
REMARK   87  A    between atoms: _209  and  _211
REMARK   88  A    between atoms: _211  and  _212
REMARK   89  A    between atoms: _211  and  _214
REMARK   90  A    between atoms: _217  and  _219
REMARK   91  A    between atoms: _219  and  _220
REMARK   92  A    between atoms: _219  and  _222
REMARK   93  A    between atoms: _222  and  _223
REMARK   94  A    between atoms: _223  and  _224
REMARK   95  A    between atoms: _226  and  _228
REMARK   96  A    between atoms: _228  and  _229
REMARK   97  A    between atoms: _228  and  _231
REMARK   98  A    between atoms: _231  and  _232
REMARK   99  A    between atoms: _238  and  _240
REMARK  100  A    between atoms: _240  and  _241
REMARK  101  A    between atoms: _240  and  _243
REMARK  102  A    between atoms: _243  and  _244
REMARK  103  A    between atoms: _249  and  _250
REMARK  104  A    between atoms: _252  and  _254
REMARK  105  A    between atoms: _254  and  _255
REMARK  106  A    between atoms: _258  and  _260
REMARK  107  A    between atoms: _260  and  _261
REMARK  108  A    between atoms: _260  and  _263
REMARK  109  A    between atoms: _263  and  _264
REMARK  110  A    between atoms: _264  and  _265
REMARK  111  A    between atoms: _265  and  _266
REMARK  112  A    between atoms: _275  and  _277
REMARK  113  A    between atoms: _277  and  _278
REMARK  114  A    between atoms: _277  and  _280
REMARK  115  A    between atoms: _280  and  _281
REMARK  116  A    between atoms: _284  and  _286
REMARK  117  A    between atoms: _286  and  _287
REMARK  118  A    between atoms: _286  and  _289
REMARK  119  A    between atoms: _289  and  _290
REMARK  120  A    between atoms: _290  and  _291
REMARK  121  A    between atoms: _291  and  _292
REMARK  122  A    between atoms: _301  and  _303
REMARK  123  A    between atoms: _303  and  _304
REMARK  124  A    between atoms: _303  and  _306
REMARK  125  A    between atoms: _306  and  _307
REMARK  126  A    between atoms: _312  and  _314
REMARK  127  A    between atoms: _314  and  _315
REMARK  128  A    between atoms: _314  and  _317
REMARK  129  A    between atoms: _317  and  _318
REMARK  130  A    between atoms: _321  and  _323
REMARK  131  A    between atoms: _323  and  _324
REMARK  132  A    between atoms: _323  and  _326
REMARK  133  A    between atoms: _326  and  _327
REMARK  134  A    between atoms: _330  and  _332
REMARK  135  A    between atoms: _332  and  _333
REMARK  136  A    between atoms: _332  and  _335
REMARK  137  A    between atoms: _335  and  _336
REMARK  138  A    between atoms: _338  and  _340
REMARK  139  A    between atoms: _340  and  _341
REMARK  140  A    between atoms: _340  and  _343
REMARK  141  A    between atoms: _343  and  _344
REMARK  142  A    between atoms: _347  and  _349
REMARK  143  A    between atoms: _349  and  _350
REMARK  144  A    between atoms: _349  and  _352
REMARK  145  A    between atoms: _352  and  _353
REMARK  146  A    between atoms: _353  and  _354
REMARK  147  A    between atoms: _359  and  _361
REMARK  148  A    between atoms: _361  and  _362
REMARK  149  A    between atoms: _365  and  _367
REMARK  150  A    between atoms: _367  and  _368
REMARK  151  A    between atoms: _367  and  _370
REMARK  152  A    between atoms: _370  and  _371
REMARK  153  A    between atoms: _376  and  _377
REMARK  154  A    between atoms: _379  and  _381
REMARK  155  A    between atoms: _381  and  _382
REMARK  156  A    between atoms: _381  and  _384
REMARK  157  A    between atoms: _384  and  _385
REMARK  158  A    between atoms: _385  and  _386
REMARK  159  A    between atoms: _391  and  _393
REMARK  160  A    between atoms: _393  and  _394
REMARK  161  A    between atoms: _396  and  _398
REMARK  162  A    between atoms: _398  and  _399
REMARK  163  A    between atoms: _401  and  _403
REMARK  164  A    between atoms: _403  and  _404
REMARK  165  A    between atoms: _403  and  _406
REMARK  166  A    between atoms: _406  and  _407
REMARK  167  A    between atoms: _407  and  _408
REMARK  168  A    between atoms: _408  and  _409
REMARK  169  A    between atoms: _418  and  _420
REMARK  170  A    between atoms: _420  and  _421
REMARK  171  A    between atoms: _420  and  _423
REMARK  172  A    between atoms: _423  and  _424
REMARK  173  A    between atoms: _427  and  _429
REMARK  174  A    between atoms: _429  and  _430
REMARK  175  A    between atoms: _429  and  _432
REMARK  176  A    between atoms: _435  and  _437
REMARK  177  A    between atoms: _437  and  _438
REMARK  178  A    between atoms: _437  and  _440
REMARK  179  A    between atoms: _443  and  _445
REMARK  180  A    between atoms: _445  and  _446
REMARK  181  A    between atoms: _448  and  _450
REMARK  182  A    between atoms: _450  and  _451
REMARK  183  A    between atoms: _450  and  _453
REMARK  184  A    between atoms: _453  and  _454
REMARK  185  A    between atoms: _454  and  _455
REMARK  186  A    between atoms: _455  and  _456
REMARK  187  A    between atoms: _456  and  _457
REMARK  188  A    between atoms: _461  and  _463
REMARK  189  A    between atoms: _463  and  _464
REMARK  190  A    between atoms: _463  and  _466
REMARK  191  A    between atoms: _466  and  _467
REMARK  192  A    between atoms: _467  and  _468
REMARK  193  A    between atoms: _468  and  _469
REMARK  194  A    between atoms: _478  and  _480
REMARK  195  A    between atoms: _480  and  _481
REMARK  196  A    between atoms: _484  and  _486
REMARK  197  A    between atoms: _486  and  _487
REMARK  198  A    between atoms: _486  and  _489
REMARK  199  A    between atoms: _489  and  _490
REMARK  200  A    between atoms: _490  and  _491
REMARK  201  A    between atoms: _491  and  _492
REMARK  202  A    between atoms: _501  and  _503
REMARK  203  A    between atoms: _503  and  _504
REMARK  204  A    between atoms: _507  and  _509
REMARK  205  A    between atoms: _509  and  _510
REMARK  206  A    between atoms: _509  and  _512
REMARK  207  A    between atoms: _512  and  _513
REMARK  208  A    between atoms: _513  and  _514
REMARK  209  A    between atoms: _514  and  _515
REMARK  210  A    between atoms: _524  and  _526
REMARK  211  A    between atoms: _526  and  _527
REMARK  212  A    between atoms: _529  and  _531
REMARK  213  A    between atoms: _531  and  _532
REMARK  214  A    between atoms: _531  and  _534
REMARK  215  A    between atoms: _534  and  _535
REMARK  216  A    between atoms: _535  and  _536
REMARK  217  A    between atoms: _539  and  _541
REMARK  218  A    between atoms: _541  and  _542
REMARK  219  A    between atoms: _541  and  _544
REMARK  220  A    between atoms: _544  and  _545
REMARK  221  A    between atoms: _548  and  _550
REMARK  222  A    between atoms: _550  and  _551
REMARK  223  A    between atoms: _550  and  _553
REMARK  224  A    between atoms: _553  and  _554
REMARK  225  A    between atoms: _557  and  _559
REMARK  226  A    between atoms: _559  and  _560
REMARK  227  A    between atoms: _559  and  _562
REMARK  228  A    between atoms: _562  and  _563
REMARK  229  A    between atoms: _563  and  _564
REMARK  230  A    between atoms: _564  and  _565
REMARK  231  A    between atoms: _574  and  _576
REMARK  232  A    between atoms: _576  and  _577
REMARK  233  A    between atoms: _576  and  _579
REMARK  234  A    between atoms: _579  and  _580
REMARK  235  A    between atoms: _583  and  _585
REMARK  236  A    between atoms: _585  and  _586
REMARK  237  A    between atoms: _585  and  _588
REMARK  238  A    between atoms: _588  and  _589
REMARK  239  A    between atoms: _589  and  _590
REMARK  240  A    between atoms: _593  and  _595
REMARK  241  A    between atoms: _595  and  _596
REMARK  242  A    between atoms: _595  and  _598
REMARK  243  A    between atoms: _598  and  _599
REMARK  244  A    between atoms: _599  and  _600
REMARK  245  A    between atoms: _605  and  _607
REMARK  246  A    between atoms: _607  and  _608
REMARK  247  A    between atoms: _607  and  _610
REMARK  248  A    between atoms: _610  and  _611
REMARK  249  A    between atoms: _611  and  _612
REMARK  250  A    between atoms: _615  and  _617
REMARK  251  A    between atoms: _617  and  _618
REMARK  252  A    between atoms: _617  and  _620
REMARK  253  A    between atoms: _620  and  _621
REMARK  254  A    between atoms: _627  and  _629
REMARK  255  A    between atoms: _629  and  _630
REMARK  256  A    between atoms: _629  and  _632
REMARK  257  A    between atoms: _632  and  _633
REMARK  258  A    between atoms: _639  and  _641
REMARK  259  A    between atoms: _641  and  _642
REMARK  260  A    between atoms: _641  and  _644
REMARK  261  A    between atoms: _644  and  _645
REMARK  262  A    between atoms: _648  and  _650
REMARK  263  A    between atoms: _650  and  _651
REMARK  264  A    between atoms: _650  and  _653
REMARK  265  A    between atoms: _653  and  _654
REMARK  266  A    between atoms: _659  and  _660
REMARK  267  A    between atoms: _662  and  _664
REMARK  268  A    between atoms: _664  and  _665
REMARK  269  A    between atoms: _668  and  _670
REMARK  270  A    between atoms: _670  and  _671
REMARK  271  A    between atoms: _670  and  _673
REMARK  272  A    between atoms: _673  and  _674
REMARK  273  A    between atoms: _674  and  _675
REMARK  274  A    between atoms: _681  and  _682
REMARK  275  A    between atoms: _687  and  _689
REMARK  276  A    between atoms: _689  and  _690
REMARK  277  A    between atoms: _689  and  _692
REMARK  278  A    between atoms: _692  and  _693
REMARK  279  A    between atoms: _696  and  _698
REMARK  280  A    between atoms: _698  and  _699
REMARK  281  A    between atoms: _698  and  _701
REMARK  282  A    between atoms: _701  and  _702
REMARK  283  A    between atoms: _702  and  _703
REMARK  284  A    between atoms: _706  and  _708
REMARK  285  A    between atoms: _708  and  _709
REMARK  286  A    between atoms: _708  and  _711
REMARK                            x       y       z     vdW  Elec       q    Type
REMARK                         _______ _______ _______ _____ _____    ______ ____
ROOT
ATOM      1  C   LEU A   1      18.852  94.767  18.760  0.00  0.00    +0.238 C 
ATOM      2  O   LEU A   1      19.358  94.929  19.893  0.00  0.00    -0.274 OA
ATOM      3  N   LEU A   2      17.829  95.490  18.304  0.00  0.00    -0.298 N 
ATOM      4  H   LEU A   2      17.408  95.262  17.381  0.00  0.00    +0.150 HD
ENDROOT
BRANCH   1   5
ATOM      5  CA  LEU A   1      19.384  93.701  17.811  0.00  0.00    +0.145 C 
BRANCH   5   6
ATOM      6  N   LEU A   1      18.379  92.955  17.047  0.00  0.00    -0.238 NA
ATOM      7  H   LEU A   1      18.284  93.141  16.028  0.00  0.00    +0.142 HD
ENDBRANCH   5   6
BRANCH   5   8
ATOM      8  CB  LEU A   1      20.358  94.374  16.834  0.00  0.00    +0.026 C 
BRANCH   8   9
ATOM      9  CG  LEU A   1      21.494  93.500  16.316  0.00  0.00    +0.002 C 
ATOM     10  CD2 LEU A   1      22.529  93.292  17.411  0.00  0.00    +0.000 C 
ATOM     11  CD1 LEU A   1      22.104  94.131  15.101  0.00  0.00    +0.000 C 
ENDBRANCH   8   9
ENDBRANCH   5   8
ENDBRANCH   1   5
BRANCH   3  12
ATOM     12  CA  LEU A   2      17.295  96.598  19.088  0.00  0.00    +0.137 C 
BRANCH  12  13
ATOM     13  C   LEU A   2      15.977  96.436  19.800  0.00  0.00    +0.227 C 
ATOM     14  O   LEU A   2      15.765  97.063  20.822  0.00  0.00    -0.286 OA
ENDBRANCH  12  13
BRANCH  12  15
ATOM     15  CB  LEU A   2      17.186  97.822  18.199  0.00  0.00    +0.028 C 
BRANCH  15  16
ATOM     16  CG  LEU A   2      18.446  98.108  17.386  0.00  0.00    +0.002 C 
ATOM     17  CD2 LEU A   2      19.617  98.366  18.337  0.00  0.00    +0.000 C 
ATOM     18  CD1 LEU A   2      18.195  99.309  16.489  0.00  0.00    +0.000 C 
ENDBRANCH  15  16
ENDBRANCH  12  15
ENDBRANCH   3  12
TORSDOF 8
REMARK  Name = ../refined-set-2016/4tmk/4tmk_pocket.pdb
REMARK  286 active torsions:
REMARK  status: ('A' for Active; 'I' for Inactive)
REMARK    1  A    between atoms: _1  and  _3
REMARK    2  A    between atoms: _3  and  _4
REMARK    3  A    between atoms: _3  and  _6
REMARK    4  A    between atoms: _6  and  _7
REMARK    5  A    between atoms: _10  and  _12
REMARK    6  A    between atoms: _12  and  _13
REMARK    7  A    between atoms: _12  and  _15
REMARK    8  A    between atoms: _15  and  _16
REMARK    9  A    between atoms: _16  and  _17
REMARK   10  A    between atoms: _20  and  _22
REMARK   11  A    between atoms: _22  and  _23
REMARK   12  A    between atoms: _25  and  _27
REMARK   13  A    between atoms: _27  and  _28
REMARK   14  A    between atoms: _27  and  _30
REMARK   15  A    between atoms: _30  and  _31
REMARK   16  A    between atoms: _34  and  _36
REMARK   17  A    between atoms: _36  and  _37
REMARK   18  A    between atoms: _36  and  _39
REMARK   19  A    between atoms: _39  and  _40
REMARK   20  A    between atoms: _40  and  _41
REMARK   21  A    between atoms: _44  and  _46
REMARK   22  A    between atoms: _46  and  _47
REMARK   23  A    between atoms: _49  and  _51
REMARK   24  A    between atoms: _51  and  _52
REMARK   25  A    between atoms: _55  and  _57
REMARK   26  A    between atoms: _57  and  _58
REMARK   27  A    between atoms: _60  and  _62
REMARK   28  A    between atoms: _62  and  _63
REMARK   29  A    between atoms: _62  and  _65
REMARK   30  A    between atoms: _65  and  _66
REMARK   31  A    between atoms: _66  and  _67
REMARK   32  A    between atoms: _67  and  _68
REMARK   33  A    between atoms: _68  and  _69
REMARK   34  A    between atoms: _73  and  _75
REMARK   35  A    between atoms: _75  and  _76
REMARK   36  A    between atoms: _75  and  _78
REMARK   37  A    between atoms: _78  and  _79
REMARK   38  A    between atoms: _82  and  _84
REMARK   39  A    between atoms: _84  and  _85
REMARK   40  A    between atoms: _84  and  _87
REMARK   41  A    between atoms: _87  and  _88
REMARK   42  A    between atoms: _91  and  _93
REMARK   43  A    between atoms: _93  and  _94
REMARK   44  A    between atoms: _97  and  _99
REMARK   45  A    between atoms: _99  and  _100
REMARK   46  A    between atoms: _99  and  _102
REMARK   47  A    between atoms: _102  and  _103
REMARK   48  A    between atoms: _103  and  _104
REMARK   49  A    between atoms: _104  and  _105
REMARK   50  A    between atoms: _114  and  _116
REMARK   51  A    between atoms: _116  and  _117
REMARK   52  A    between atoms: _116  and  _119
REMARK   53  A    between atoms: _119  and  _120
REMARK   54  A    between atoms: _125  and  _127
REMARK   55  A    between atoms: _127  and  _128
REMARK   56  A    between atoms: _127  and  _130
REMARK   57  A    between atoms: _130  and  _131
REMARK   58  A    between atoms: _131  and  _132
REMARK   59  A    between atoms: _132  and  _133
REMARK   60  A    between atoms: _142  and  _144
REMARK   61  A    between atoms: _144  and  _145
REMARK   62  A    between atoms: _144  and  _147
REMARK   63  A    between atoms: _147  and  _148
REMARK   64  A    between atoms: _148  and  _149
REMARK   65  A    between atoms: _153  and  _154
REMARK   66  A    between atoms: _159  and  _161
REMARK   67  A    between atoms: _161  and  _162
REMARK   68  A    between atoms: _164  and  _166
REMARK   69  A    between atoms: _166  and  _167
REMARK   70  A    between atoms: _166  and  _169
REMARK   71  A    between atoms: _169  and  _170
REMARK   72  A    between atoms: _170  and  _171
REMARK   73  A    between atoms: _171  and  _172
REMARK   74  A    between atoms: _181  and  _183
REMARK   75  A    between atoms: _183  and  _184
REMARK   76  A    between atoms: _183  and  _186
REMARK   77  A    between atoms: _186  and  _187
REMARK   78  A    between atoms: _190  and  _192
REMARK   79  A    between atoms: _192  and  _193
REMARK   80  A    between atoms: _192  and  _195
REMARK   81  A    between atoms: _195  and  _196
REMARK   82  A    between atoms: _199  and  _201
REMARK   83  A    between atoms: _201  and  _202
REMARK   84  A    between atoms: _201  and  _204
REMARK   85  A    between atoms: _204  and  _205
REMARK   86  A    between atoms: _205  and  _206
REMARK   87  A    between atoms: _209  and  _211
REMARK   88  A    between atoms: _211  and  _212
REMARK   89  A    between atoms: _211  and  _214
REMARK   90  A    between atoms: _217  and  _219
REMARK   91  A    between atoms: _219  and  _220
REMARK   92  A    between atoms: _219  and  _222
REMARK   93  A    between atoms: _222  and  _223
REMARK   94  A    between atoms: _223  and  _224
REMARK   95  A    between atoms: _226  and  _228
REMARK   96  A    between atoms: _228  and  _229
REMARK   97  A    between atoms: _228  and  _231
REMARK   98  A    between atoms: _231  and  _232
REMARK   99  A    between atoms: _238  and  _240
REMARK  100  A    between atoms: _240  and  _241
REMARK  101  A    between atoms: _240  and  _243
REMARK  102  A    between atoms: _243  and  _244
REMARK  103  A    between atoms: _249  and  _250
REMARK  104  A    between atoms: _252  and  _254
REMARK  105  A    between atoms: _254  and  _255
REMARK  106  A    between atoms: _258  and  _260
REMARK  107  A    between atoms: _260  and  _261
REMARK  108  A    between atoms: _260  and  _263
REMARK  109  A    between atoms: _263  and  _264
REMARK  110  A    between atoms: _264  and  _265
REMARK  111  A    between atoms: _265  and  _266
REMARK  112  A    between atoms: _275  and  _277
REMARK  113  A    between atoms: _277  and  _278
REMARK  114  A    between atoms: _277  and  _280
REMARK  115  A    between atoms: _280  and  _281
REMARK  116  A    between atoms: _284  and  _286
REMARK  117  A    between atoms: _286  and  _287
REMARK  118  A    between atoms: _286  and  _289
REMARK  119  A    between atoms: _289  and  _290
REMARK  120  A    between atoms: _290  and  _291
REMARK  121  A    between atoms: _291  and  _292
REMARK  122  A    between atoms: _301  and  _303
REMARK  123  A    between atoms: _303  and  _304
REMARK  124  A    between atoms: _303  and  _306
REMARK  125  A    between atoms: _306  and  _307
REMARK  126  A    between atoms: _312  and  _314
REMARK  127  A    between atoms: _314  and  _315
REMARK  128  A    between atoms: _314  and  _317
REMARK  129  A    between atoms: _317  and  _318
REMARK  130  A    between atoms: _321  and  _323
REMARK  131  A    between atoms: _323  and  _324
REMARK  132  A    between atoms: _323  and  _326
REMARK  133  A    between atoms: _326  and  _327
REMARK  134  A    between atoms: _330  and  _332
REMARK  135  A    between atoms: _332  and  _333
REMARK  136  A    between atoms: _332  and  _335
REMARK  137  A    between atoms: _335  and  _336
REMARK  138  A    between atoms: _338  and  _340
REMARK  139  A    between atoms: _340  and  _341
REMARK  140  A    between atoms: _340  and  _343
REMARK  141  A    between atoms: _343  and  _344
REMARK  142  A    between atoms: _347  and  _349
REMARK  143  A    between atoms: _349  and  _350
REMARK  144  A    between atoms: _349  and  _352
REMARK  145  A    between atoms: _352  and  _353
REMARK  146  A    between atoms: _353  and  _354
REMARK  147  A    between atoms: _359  and  _361
REMARK  148  A    between atoms: _361  and  _362
REMARK  149  A    between atoms: _365  and  _367
REMARK  150  A    between atoms: _367  and  _368
REMARK  151  A    between atoms: _367  and  _370
REMARK  152  A    between atoms: _370  and  _371
REMARK  153  A    between atoms: _376  and  _377
REMARK  154  A    between atoms: _379  and  _381
REMARK  155  A    between atoms: _381  and  _382
REMARK  156  A    between atoms: _381  and  _384
REMARK  157  A    between atoms: _384  and  _385
REMARK  158  A    between atoms: _385  and  _386
REMARK  159  A    between atoms: _391  and  _393
REMARK  160  A    between atoms: _393  and  _394
REMARK  161  A    between atoms: _396  and  _398
REMARK  162  A    between atoms: _398  and  _399
REMARK  163  A    between atoms: _401  and  _403
REMARK  164  A    between atoms: _403  and  _404
REMARK  165  A    between atoms: _403  and  _406
REMARK  166  A    between atoms: _406  and  _407
REMARK  167  A    between atoms: _407  and  _408
REMARK  168  A    between atoms: _408  and  _409
REMARK  169  A    between atoms: _418  and  _420
REMARK  170  A    between atoms: _420  and  _421
REMARK  171  A    between atoms: _420  and  _423
REMARK  172  A    between atoms: _423  and  _424
REMARK  173  A    between atoms: _427  and  _429
REMARK  174  A    between atoms: _429  and  _430
REMARK  175  A    between atoms: _429  and  _432
REMARK  176  A    between atoms: _435  and  _437
REMARK  177  A    between atoms: _437  and  _438
REMARK  178  A    between atoms: _437  and  _440
REMARK  179  A    between atoms: _443  and  _445
REMARK  180  A    between atoms: _445  and  _446
REMARK  181  A    between atoms: _448  and  _450
REMARK  182  A    between atoms: _450  and  _451
REMARK  183  A    between atoms: _450  and  _453
REMARK  184  A    between atoms: _453  and  _454
REMARK  185  A    between atoms: _454  and  _455
REMARK  186  A    between atoms: _455  and  _456
REMARK  187  A    between atoms: _456  and  _457
REMARK  188  A    between atoms: _461  and  _463
REMARK  189  A    between atoms: _463  and  _464
REMARK  190  A    between atoms: _463  and  _466
REMARK  191  A    between atoms: _466  and  _467
REMARK  192  A    between atoms: _467  and  _468
REMARK  193  A    between atoms: _468  and  _469
REMARK  194  A    between atoms: _478  and  _480
REMARK  195  A    between atoms: _480  and  _481
REMARK  196  A    between atoms: _484  and  _486
REMARK  197  A    between atoms: _486  and  _487
REMARK  198  A    between atoms: _486  and  _489
REMARK  199  A    between atoms: _489  and  _490
REMARK  200  A    between atoms: _490  and  _491
REMARK  201  A    between atoms: _491  and  _492
REMARK  202  A    between atoms: _501  and  _503
REMARK  203  A    between atoms: _503  and  _504
REMARK  204  A    between atoms: _507  and  _509
REMARK  205  A    between atoms: _509  and  _510
REMARK  206  A    between atoms: _509  and  _512
REMARK  207  A    between atoms: _512  and  _513
REMARK  208  A    between atoms: _513  and  _514
REMARK  209  A    between atoms: _514  and  _515
REMARK  210  A    between atoms: _524  and  _526
REMARK  211  A    between atoms: _526  and  _527
REMARK  212  A    between atoms: _529  and  _531
REMARK  213  A    between atoms: _531  and  _532
REMARK  214  A    between atoms: _531  and  _534
REMARK  215  A    between atoms: _534  and  _535
REMARK  216  A    between atoms: _535  and  _536
REMARK  217  A    between atoms: _539  and  _541
REMARK  218  A    between atoms: _541  and  _542
REMARK  219  A    between atoms: _541  and  _544
REMARK  220  A    between atoms: _544  and  _545
REMARK  221  A    between atoms: _548  and  _550
REMARK  222  A    between atoms: _550  and  _551
REMARK  223  A    between atoms: _550  and  _553
REMARK  224  A    between atoms: _553  and  _554
REMARK  225  A    between atoms: _557  and  _559
REMARK  226  A    between atoms: _559  and  _560
REMARK  227  A    between atoms: _559  and  _562
REMARK  228  A    between atoms: _562  and  _563
REMARK  229  A    between atoms: _563  and  _564
REMARK  230  A    between atoms: _564  and  _565
REMARK  231  A    between atoms: _574  and  _576
REMARK  232  A    between atoms: _576  and  _577
REMARK  233  A    between atoms: _576  and  _579
REMARK  234  A    between atoms: _579  and  _580
REMARK  235  A    between atoms: _583  and  _585
REMARK  236  A    between atoms: _585  and  _586
REMARK  237  A    between atoms: _585  and  _588
REMARK  238  A    between atoms: _588  and  _589
REMARK  239  A    between atoms: _589  and  _590
REMARK  240  A    between atoms: _593  and  _595
REMARK  241  A    between atoms: _595  and  _596
REMARK  242  A    between atoms: _595  and  _598
REMARK  243  A    between atoms: _598  and  _599
REMARK  244  A    between atoms: _599  and  _600
REMARK  245  A    between atoms: _605  and  _607
REMARK  246  A    between atoms: _607  and  _608
REMARK  247  A    between atoms: _607  and  _610
REMARK  248  A    between atoms: _610  and  _611
REMARK  249  A    between atoms: _611  and  _612
REMARK  250  A    between atoms: _615  and  _617
REMARK  251  A    between atoms: _617  and  _618
REMARK  252  A    between atoms: _617  and  _620
REMARK  253  A    between atoms: _620  and  _621
REMARK  254  A    between atoms: _627  and  _629
REMARK  255  A    between atoms: _629  and  _630
REMARK  256  A    between atoms: _629  and  _632
REMARK  257  A    between atoms: _632  and  _633
REMARK  258  A    between atoms: _639  and  _641
REMARK  259  A    between atoms: _641  and  _642
REMARK  260  A    between atoms: _641  and  _644
REMARK  261  A    between atoms: _644  and  _645
REMARK  262  A    between atoms: _648  and  _650
REMARK  263  A    between atoms: _650  and  _651
REMARK  264  A    between atoms: _650  and  _653
REMARK  265  A    between atoms: _653  and  _654
REMARK  266  A    between atoms: _659  and  _660
REMARK  267  A    between atoms: _662  and  _664
REMARK  268  A    between atoms: _664  and  _665
REMARK  269  A    between atoms: _668  and  _670
REMARK  270  A    between atoms: _670  and  _671
REMARK  271  A    between atoms: _670  and  _673
REMARK  272  A    between atoms: _673  and  _674
REMARK  273  A    between atoms: _674  and  _675
REMARK  274  A    between atoms: _681  and  _682
REMARK  275  A    between atoms: _687  and  _689
REMARK  276  A    between atoms: _689  and  _690
REMARK  277  A    between atoms: _689  and  _692
REMARK  278  A    between atoms: _692  and  _693
REMARK  279  A    between atoms: _696  and  _698
REMARK  280  A    between atoms: _698  and  _699
REMARK  281  A    between atoms: _698  and  _701
REMARK  282  A    between atoms: _701  and  _702
REMARK  283  A    between atoms: _702  and  _703
REMARK  284  A    between atoms: _706  and  _708
REMARK  285  A    between atoms: _708  and  _709
REMARK  286  A    between atoms: _708  and  _711
REMARK                            x       y       z     vdW  Elec       q    Type
REMARK                         _______ _______ _______ _____ _____    ______ ____
ROOT
ATOM      1  C   GLU A   1      26.499  91.708  18.007  0.00  0.00    +0.238 C 
ATOM      2  N   VAL A   2      27.794  91.566  18.261  0.00  0.00    -0.298 N 
ATOM      3  H   VAL A   2      28.092  91.120  19.152  0.00  0.00    +0.150 HD
ATOM      4  O   GLU A   1      26.075  92.229  16.974  0.00  0.00    -0.274 OA
ENDROOT
BRANCH   1   5
ATOM      5  CA  GLU A   1      25.556  91.171  19.061  0.00  0.00    +0.145 C 
BRANCH   5   6
ATOM      6  N   GLU A   1      25.925  89.800  19.395  0.00  0.00    -0.238 NA
ATOM      7  H   GLU A   1      26.186  89.560  20.373  0.00  0.00    +0.142 HD
ENDBRANCH   5   6
BRANCH   5   8
ATOM      8  CB  GLU A   1      25.622  92.039  20.305  0.00  0.00    +0.038 C 
BRANCH   8   9
ATOM      9  CG  GLU A   1      25.350  93.502  20.044  0.00  0.00    +0.116 C 
BRANCH   9  10
ATOM     10  CD  GLU A   1      25.306  94.275  21.332  0.00  0.00    +0.365 C 
ATOM     11  OE2 GLU A   1      24.206  94.453  21.911  0.00  0.00    -0.246 OA
ATOM     12  OE1 GLU A   1      26.383  94.693  21.784  0.00  0.00    -0.246 OA
ENDBRANCH   9  10
ENDBRANCH   8   9
ENDBRANCH   5   8
ENDBRANCH   1   5
BRANCH   2  13
ATOM     13  CA  VAL A   2      28.805  92.021  17.318  0.00  0.00    +0.137 C 
BRANCH  13  14
ATOM     14  CB  VAL A   2      30.209  91.656  17.784  0.00  0.00    +0.026 C 
ATOM     15  CG2 VAL A   2      30.577  92.484  18.967  0.00  0.00    +0.002 C 
ATOM     16  CG1 VAL A   2      31.181  91.886  16.669  0.00  0.00    +0.002 C 
ENDBRANCH  13  14
BRANCH  13  17
ATOM     17  C   VAL A   2      28.646  91.396  15.955  0.00  0.00    +0.227 C 
ATOM     18  O   VAL A   2      28.704  92.077  14.933  0.00  0.00    -0.286 OA
ENDBRANCH  13  17
ENDBRANCH   2  13
TORSDOF 8
REMARK  Name = ../refined-set-2016/4tmk/4tmk_pocket.pdb
REMARK  286 active torsions:
REMARK  status: ('A' for Active; 'I' for Inactive)
REMARK    1  A    between atoms: _1  and  _3
REMARK    2  A    between atoms: _3  and  _4
REMARK    3  A    between atoms: _3  and  _6
REMARK    4  A    between atoms: _6  and  _7
REMARK    5  A    between atoms: _10  and  _12
REMARK    6  A    between atoms: _12  and  _13
REMARK    7  A    between atoms: _12  and  _15
REMARK    8  A    between atoms: _15  and  _16
REMARK    9  A    between atoms: _16  and  _17
REMARK   10  A    between atoms: _20  and  _22
REMARK   11  A    between atoms: _22  and  _23
REMARK   12  A    between atoms: _25  and  _27
REMARK   13  A    between atoms: _27  and  _28
REMARK   14  A    between atoms: _27  and  _30
REMARK   15  A    between atoms: _30  and  _31
REMARK   16  A    between atoms: _34  and  _36
REMARK   17  A    between atoms: _36  and  _37
REMARK   18  A    between atoms: _36  and  _39
REMARK   19  A    between atoms: _39  and  _40
REMARK   20  A    between atoms: _40  and  _41
REMARK   21  A    between atoms: _44  and  _46
REMARK   22  A    between atoms: _46  and  _47
REMARK   23  A    between atoms: _49  and  _51
REMARK   24  A    between atoms: _51  and  _52
REMARK   25  A    between atoms: _55  and  _57
REMARK   26  A    between atoms: _57  and  _58
REMARK   27  A    between atoms: _60  and  _62
REMARK   28  A    between atoms: _62  and  _63
REMARK   29  A    between atoms: _62  and  _65
REMARK   30  A    between atoms: _65  and  _66
REMARK   31  A    between atoms: _66  and  _67
REMARK   32  A    between atoms: _67  and  _68
REMARK   33  A    between atoms: _68  and  _69
REMARK   34  A    between atoms: _73  and  _75
REMARK   35  A    between atoms: _75  and  _76
REMARK   36  A    between atoms: _75  and  _78
REMARK   37  A    between atoms: _78  and  _79
REMARK   38  A    between atoms: _82  and  _84
REMARK   39  A    between atoms: _84  and  _85
REMARK   40  A    between atoms: _84  and  _87
REMARK   41  A    between atoms: _87  and  _88
REMARK   42  A    between atoms: _91  and  _93
REMARK   43  A    between atoms: _93  and  _94
REMARK   44  A    between atoms: _97  and  _99
REMARK   45  A    between atoms: _99  and  _100
REMARK   46  A    between atoms: _99  and  _102
REMARK   47  A    between atoms: _102  and  _103
REMARK   48  A    between atoms: _103  and  _104
REMARK   49  A    between atoms: _104  and  _105
REMARK   50  A    between atoms: _114  and  _116
REMARK   51  A    between atoms: _116  and  _117
REMARK   52  A    between atoms: _116  and  _119
REMARK   53  A    between atoms: _119  and  _120
REMARK   54  A    between atoms: _125  and  _127
REMARK   55  A    between atoms: _127  and  _128
REMARK   56  A    between atoms: _127  and  _130
REMARK   57  A    between atoms: _130  and  _131
REMARK   58  A    between atoms: _131  and  _132
REMARK   59  A    between atoms: _132  and  _133
REMARK   60  A    between atoms: _142  and  _144
REMARK   61  A    between atoms: _144  and  _145
REMARK   62  A    between atoms: _144  and  _147
REMARK   63  A    between atoms: _147  and  _148
REMARK   64  A    between atoms: _148  and  _149
REMARK   65  A    between atoms: _153  and  _154
REMARK   66  A    between atoms: _159  and  _161
REMARK   67  A    between atoms: _161  and  _162
REMARK   68  A    between atoms: _164  and  _166
REMARK   69  A    between atoms: _166  and  _167
REMARK   70  A    between atoms: _166  and  _169
REMARK   71  A    between atoms: _169  and  _170
REMARK   72  A    between atoms: _170  and  _171
REMARK   73  A    between atoms: _171  and  _172
REMARK   74  A    between atoms: _181  and  _183
REMARK   75  A    between atoms: _183  and  _184
REMARK   76  A    between atoms: _183  and  _186
REMARK   77  A    between atoms: _186  and  _187
REMARK   78  A    between atoms: _190  and  _192
REMARK   79  A    between atoms: _192  and  _193
REMARK   80  A    between atoms: _192  and  _195
REMARK   81  A    between atoms: _195  and  _196
REMARK   82  A    between atoms: _199  and  _201
REMARK   83  A    between atoms: _201  and  _202
REMARK   84  A    between atoms: _201  and  _204
REMARK   85  A    between atoms: _204  and  _205
REMARK   86  A    between atoms: _205  and  _206
REMARK   87  A    between atoms: _209  and  _211
REMARK   88  A    between atoms: _211  and  _212
REMARK   89  A    between atoms: _211  and  _214
REMARK   90  A    between atoms: _217  and  _219
REMARK   91  A    between atoms: _219  and  _220
REMARK   92  A    between atoms: _219  and  _222
REMARK   93  A    between atoms: _222  and  _223
REMARK   94  A    between atoms: _223  and  _224
REMARK   95  A    between atoms: _226  and  _228
REMARK   96  A    between atoms: _228  and  _229
REMARK   97  A    between atoms: _228  and  _231
REMARK   98  A    between atoms: _231  and  _232
REMARK   99  A    between atoms: _238  and  _240
REMARK  100  A    between atoms: _240  and  _241
REMARK  101  A    between atoms: _240  and  _243
REMARK  102  A    between atoms: _243  and  _244
REMARK  103  A    between atoms: _249  and  _250
REMARK  104  A    between atoms: _252  and  _254
REMARK  105  A    between atoms: _254  and  _255
REMARK  106  A    between atoms: _258  and  _260
REMARK  107  A    between atoms: _260  and  _261
REMARK  108  A    between atoms: _260  and  _263
REMARK  109  A    between atoms: _263  and  _264
REMARK  110  A    between atoms: _264  and  _265
REMARK  111  A    between atoms: _265  and  _266
REMARK  112  A    between atoms: _275  and  _277
REMARK  113  A    between atoms: _277  and  _278
REMARK  114  A    between atoms: _277  and  _280
REMARK  115  A    between atoms: _280  and  _281
REMARK  116  A    between atoms: _284  and  _286
REMARK  117  A    between atoms: _286  and  _287
REMARK  118  A    between atoms: _286  and  _289
REMARK  119  A    between atoms: _289  and  _290
REMARK  120  A    between atoms: _290  and  _291
REMARK  121  A    between atoms: _291  and  _292
REMARK  122  A    between atoms: _301  and  _303
REMARK  123  A    between atoms: _303  and  _304
REMARK  124  A    between atoms: _303  and  _306
REMARK  125  A    between atoms: _306  and  _307
REMARK  126  A    between atoms: _312  and  _314
REMARK  127  A    between atoms: _314  and  _315
REMARK  128  A    between atoms: _314  and  _317
REMARK  129  A    between atoms: _317  and  _318
REMARK  130  A    between atoms: _321  and  _323
REMARK  131  A    between atoms: _323  and  _324
REMARK  132  A    between atoms: _323  and  _326
REMARK  133  A    between atoms: _326  and  _327
REMARK  134  A    between atoms: _330  and  _332
REMARK  135  A    between atoms: _332  and  _333
REMARK  136  A    between atoms: _332  and  _335
REMARK  137  A    between atoms: _335  and  _336
REMARK  138  A    between atoms: _338  and  _340
REMARK  139  A    between atoms: _340  and  _341
REMARK  140  A    between atoms: _340  and  _343
REMARK  141  A    between atoms: _343  and  _344
REMARK  142  A    between atoms: _347  and  _349
REMARK  143  A    between atoms: _349  and  _350
REMARK  144  A    between atoms: _349  and  _352
REMARK  145  A    between atoms: _352  and  _353
REMARK  146  A    between atoms: _353  and  _354
REMARK  147  A    between atoms: _359  and  _361
REMARK  148  A    between atoms: _361  and  _362
REMARK  149  A    between atoms: _365  and  _367
REMARK  150  A    between atoms: _367  and  _368
REMARK  151  A    between atoms: _367  and  _370
REMARK  152  A    between atoms: _370  and  _371
REMARK  153  A    between atoms: _376  and  _377
REMARK  154  A    between atoms: _379  and  _381
REMARK  155  A    between atoms: _381  and  _382
REMARK  156  A    between atoms: _381  and  _384
REMARK  157  A    between atoms: _384  and  _385
REMARK  158  A    between atoms: _385  and  _386
REMARK  159  A    between atoms: _391  and  _393
REMARK  160  A    between atoms: _393  and  _394
REMARK  161  A    between atoms: _396  and  _398
REMARK  162  A    between atoms: _398  and  _399
REMARK  163  A    between atoms: _401  and  _403
REMARK  164  A    between atoms: _403  and  _404
REMARK  165  A    between atoms: _403  and  _406
REMARK  166  A    between atoms: _406  and  _407
REMARK  167  A    between atoms: _407  and  _408
REMARK  168  A    between atoms: _408  and  _409
REMARK  169  A    between atoms: _418  and  _420
REMARK  170  A    between atoms: _420  and  _421
REMARK  171  A    between atoms: _420  and  _423
REMARK  172  A    between atoms: _423  and  _424
REMARK  173  A    between atoms: _427  and  _429
REMARK  174  A    between atoms: _429  and  _430
REMARK  175  A    between atoms: _429  and  _432
REMARK  176  A    between atoms: _435  and  _437
REMARK  177  A    between atoms: _437  and  _438
REMARK  178  A    between atoms: _437  and  _440
REMARK  179  A    between atoms: _443  and  _445
REMARK  180  A    between atoms: _445  and  _446
REMARK  181  A    between atoms: _448  and  _450
REMARK  182  A    between atoms: _450  and  _451
REMARK  183  A    between atoms: _450  and  _453
REMARK  184  A    between atoms: _453  and  _454
REMARK  185  A    between atoms: _454  and  _455
REMARK  186  A    between atoms: _455  and  _456
REMARK  187  A    between atoms: _456  and  _457
REMARK  188  A    between atoms: _461  and  _463
REMARK  189  A    between atoms: _463  and  _464
REMARK  190  A    between atoms: _463  and  _466
REMARK  191  A    between atoms: _466  and  _467
REMARK  192  A    between atoms: _467  and  _468
REMARK  193  A    between atoms: _468  and  _469
REMARK  194  A    between atoms: _478  and  _480
REMARK  195  A    between atoms: _480  and  _481
REMARK  196  A    between atoms: _484  and  _486
REMARK  197  A    between atoms: _486  and  _487
REMARK  198  A    between atoms: _486  and  _489
REMARK  199  A    between atoms: _489  and  _490
REMARK  200  A    between atoms: _490  and  _491
REMARK  201  A    between atoms: _491  and  _492
REMARK  202  A    between atoms: _501  and  _503
REMARK  203  A    between atoms: _503  and  _504
REMARK  204  A    between atoms: _507  and  _509
REMARK  205  A    between atoms: _509  and  _510
REMARK  206  A    between atoms: _509  and  _512
REMARK  207  A    between atoms: _512  and  _513
REMARK  208  A    between atoms: _513  and  _514
REMARK  209  A    between atoms: _514  and  _515
REMARK  210  A    between atoms: _524  and  _526
REMARK  211  A    between atoms: _526  and  _527
REMARK  212  A    between atoms: _529  and  _531
REMARK  213  A    between atoms: _531  and  _532
REMARK  214  A    between atoms: _531  and  _534
REMARK  215  A    between atoms: _534  and  _535
REMARK  216  A    between atoms: _535  and  _536
REMARK  217  A    between atoms: _539  and  _541
REMARK  218  A    between atoms: _541  and  _542
REMARK  219  A    between atoms: _541  and  _544
REMARK  220  A    between atoms: _544  and  _545
REMARK  221  A    between atoms: _548  and  _550
REMARK  222  A    between atoms: _550  and  _551
REMARK  223  A    between atoms: _550  and  _553
REMARK  224  A    between atoms: _553  and  _554
REMARK  225  A    between atoms: _557  and  _559
REMARK  226  A    between atoms: _559  and  _560
REMARK  227  A    between atoms: _559  and  _562
REMARK  228  A    between atoms: _562  and  _563
REMARK  229  A    between atoms: _563  and  _564
REMARK  230  A    between atoms: _564  and  _565
REMARK  231  A    between atoms: _574  and  _576
REMARK  232  A    between atoms: _576  and  _577
REMARK  233  A    between atoms: _576  and  _579
REMARK  234  A    between atoms: _579  and  _580
REMARK  235  A    between atoms: _583  and  _585
REMARK  236  A    between atoms: _585  and  _586
REMARK  237  A    between atoms: _585  and  _588
REMARK  238  A    between atoms: _588  and  _589
REMARK  239  A    between atoms: _589  and  _590
REMARK  240  A    between atoms: _593  and  _595
REMARK  241  A    between atoms: _595  and  _596
REMARK  242  A    between atoms: _595  and  _598
REMARK  243  A    between atoms: _598  and  _599
REMARK  244  A    between atoms: _599  and  _600
REMARK  245  A    between atoms: _605  and  _607
REMARK  246  A    between atoms: _607  and  _608
REMARK  247  A    between atoms: _607  and  _610
REMARK  248  A    between atoms: _610  and  _611
REMARK  249  A    between atoms: _611  and  _612
REMARK  250  A    between atoms: _615  and  _617
REMARK  251  A    between atoms: _617  and  _618
REMARK  252  A    between atoms: _617  and  _620
REMARK  253  A    between atoms: _620  and  _621
REMARK  254  A    between atoms: _627  and  _629
REMARK  255  A    between atoms: _629  and  _630
REMARK  256  A    between atoms: _629  and  _632
REMARK  257  A    between atoms: _632  and  _633
REMARK  258  A    between atoms: _639  and  _641
REMARK  259  A    between atoms: _641  and  _642
REMARK  260  A    between atoms: _641  and  _644
REMARK  261  A    between atoms: _644  and  _645
REMARK  262  A    between atoms: _648  and  _650
REMARK  263  A    between atoms: _650  and  _651
REMARK  264  A    between atoms: _650  and  _653
REMARK  265  A    between atoms: _653  and  _654
REMARK  266  A    between atoms: _659  and  _660
REMARK  267  A    between atoms: _662  and  _664
REMARK  268  A    between atoms: _664  and  _665
REMARK  269  A    between atoms: _668  and  _670
REMARK  270  A    between atoms: _670  and  _671
REMARK  271  A    between atoms: _670  and  _673
REMARK  272  A    between atoms: _673  and  _674
REMARK  273  A    between atoms: _674  and  _675
REMARK  274  A    between atoms: _681  and  _682
REMARK  275  A    between atoms: _687  and  _689
REMARK  276  A    between atoms: _689  and  _690
REMARK  277  A    between atoms: _689  and  _692
REMARK  278  A    between atoms: _692  and  _693
REMARK  279  A    between atoms: _696  and  _698
REMARK  280  A    between atoms: _698  and  _699
REMARK  281  A    between atoms: _698  and  _701
REMARK  282  A    between atoms: _701  and  _702
REMARK  283  A    between atoms: _702  and  _703
REMARK  284  A    between atoms: _706  and  _708
REMARK  285  A    between atoms: _708  and  _709
REMARK  286  A    between atoms: _708  and  _711
REMARK                            x       y       z     vdW  Elec       q    Type
REMARK                         _______ _______ _______ _____ _____    ______ ____
ROOT
ATOM      1  CA  PHE A   2      25.882  94.134  13.431  0.00  0.00    +0.153 C 
ENDROOT
BRANCH   1   3
ATOM      2  C   MET A   1      24.931  91.901  13.217  0.00  0.00    +0.238 C 
ATOM      3  N   PHE A   2      25.617  92.788  13.950  0.00  0.00    -0.297 N 
ATOM      4  H   PHE A   2      25.964  92.520  14.893  0.00  0.00    +0.150 HD
ATOM      5  O   MET A   1      24.461  92.177  12.111  0.00  0.00    -0.274 OA
BRANCH   2   6
ATOM      6  CA  MET A   1      24.766  90.486  13.790  0.00  0.00    +0.146 C 
BRANCH   6   7
ATOM      7  N   MET A   1      25.970  90.078  14.530  0.00  0.00    -0.238 NA
ATOM      8  H   MET A   1      25.959  90.019  15.568  0.00  0.00    +0.142 HD
ENDBRANCH   6   7
BRANCH   6   9
ATOM      9  CB  MET A   1      23.527  90.374  14.678  0.00  0.00    +0.038 C 
BRANCH   9  10
ATOM     10  CG  MET A   1      23.060  88.908  14.867  0.00  0.00    +0.060 C 
BRANCH  10  11
ATOM     11  SD  MET A   1      21.553  88.741  15.827  0.00  0.00    -0.139 S 
ATOM     12  CE  MET A   1      22.073  89.231  17.420  0.00  0.00    +0.069 C 
ENDBRANCH  10  11
ENDBRANCH   9  10
ENDBRANCH   6   9
ENDBRANCH   2   6
ENDBRANCH   1   3
BRANCH   1  13
ATOM     13  C   PHE A   2      26.736  93.952  12.171  0.00  0.00    +0.241 C 
ATOM     14  N   TYR A   3      27.705  93.037  12.213  0.00  0.00    -0.298 N 
ATOM     15  H   TYR A   3      27.869  92.488  13.081  0.00  0.00    +0.150 HD
ATOM     16  O   PHE A   2      26.525  94.612  11.154  0.00  0.00    -0.273 OA
BRANCH  14  17
ATOM     17  CA  TYR A   3      28.541  92.808  11.025  0.00  0.00    +0.141 C 
BRANCH  17  18
ATOM     18  C   TYR A   3      27.784  92.148   9.866  0.00  0.00    +0.227 C 
ATOM     19  O   TYR A   3      28.053  92.437   8.696  0.00  0.00    -0.286 OA
ENDBRANCH  17  18
BRANCH  17  20
ATOM     20  CB  TYR A   3      29.788  91.965  11.385  0.00  0.00    +0.054 C 
BRANCH  20  21
ATOM     21  CG  TYR A   3      30.994  92.815  11.689  0.00  0.00    -0.020 A 
ATOM     22  CD2 TYR A   3      31.515  92.880  12.977  0.00  0.00    -0.001 A 
ATOM     23  CE2 TYR A   3      32.561  93.770  13.282  0.00  0.00    +0.036 A 
ATOM     24  CZ  TYR A   3      33.074  94.591  12.272  0.00  0.00    +0.134 A 
ATOM     25  CE1 TYR A   3      32.576  94.524  10.989  0.00  0.00    +0.036 A 
ATOM     26  CD1 TYR A   3      31.547  93.641  10.704  0.00  0.00    -0.001 A 
BRANCH  24  27
ATOM     27  OH  TYR A   3      34.056  95.513  12.553  0.00  0.00    -0.506 OA
ATOM     28  HH  TYR A   3      34.296  96.001  11.726  0.00  0.00    +0.292 HD
ENDBRANCH  24  27
ENDBRANCH  20  21
ENDBRANCH  17  20
ENDBRANCH  14  17
ENDBRANCH   1  13
BRANCH   1  29
ATOM     29  CB  PHE A   2      26.628  94.986  14.481  0.00  0.00    +0.055 C 
BRANCH  29  30
ATOM     30  CG  PHE A   2      25.710  95.740  15.428  0.00  0.00    -0.020 A 
ATOM     31  CD2 PHE A   2      25.799  95.558  16.807  0.00  0.00    -0.004 A 
ATOM     32  CE2 PHE A   2      24.925  96.221  17.692  0.00  0.00    -0.000 A 
ATOM     33  CZ  PHE A   2      23.960  97.071  17.187  0.00  0.00    -0.000 A 
ATOM     34  CE1 PHE A   2      23.863  97.272  15.805  0.00  0.00    -0.000 A 
ATOM     35  CD1 PHE A   2      24.734  96.611  14.929  0.00  0.00    -0.004 A 
ENDBRANCH  29  30
ENDBRANCH   1  29
TORSDOF 14
REMARK  Name = ../refined-set-2016/4tmk/4tmk_pocket.pdb
REMARK  286 active torsions:
REMARK  status: ('A' for Active; 'I' for Inactive)
REMARK    1  A    between atoms: _1  and  _3
REMARK    2  A    between atoms: _3  and  _4
REMARK    3  A    between atoms: _3  and  _6
REMARK    4  A    between atoms: _6  and  _7
REMARK    5  A    between atoms: _10  and  _12
REMARK    6  A    between atoms: _12  and  _13
REMARK    7  A    between atoms: _12  and  _15
REMARK    8  A    between atoms: _15  and  _16
REMARK    9  A    between atoms: _16  and  _17
REMARK   10  A    between atoms: _20  and  _22
REMARK   11  A    between atoms: _22  and  _23
REMARK   12  A    between atoms: _25  and  _27
REMARK   13  A    between atoms: _27  and  _28
REMARK   14  A    between atoms: _27  and  _30
REMARK   15  A    between atoms: _30  and  _31
REMARK   16  A    between atoms: _34  and  _36
REMARK   17  A    between atoms: _36  and  _37
REMARK   18  A    between atoms: _36  and  _39
REMARK   19  A    between atoms: _39  and  _40
REMARK   20  A    between atoms: _40  and  _41
REMARK   21  A    between atoms: _44  and  _46
REMARK   22  A    between atoms: _46  and  _47
REMARK   23  A    between atoms: _49  and  _51
REMARK   24  A    between atoms: _51  and  _52
REMARK   25  A    between atoms: _55  and  _57
REMARK   26  A    between atoms: _57  and  _58
REMARK   27  A    between atoms: _60  and  _62
REMARK   28  A    between atoms: _62  and  _63
REMARK   29  A    between atoms: _62  and  _65
REMARK   30  A    between atoms: _65  and  _66
REMARK   31  A    between atoms: _66  and  _67
REMARK   32  A    between atoms: _67  and  _68
REMARK   33  A    between atoms: _68  and  _69
REMARK   34  A    between atoms: _73  and  _75
REMARK   35  A    between atoms: _75  and  _76
REMARK   36  A    between atoms: _75  and  _78
REMARK   37  A    between atoms: _78  and  _79
REMARK   38  A    between atoms: _82  and  _84
REMARK   39  A    between atoms: _84  and  _85
REMARK   40  A    between atoms: _84  and  _87
REMARK   41  A    between atoms: _87  and  _88
REMARK   42  A    between atoms: _91  and  _93
REMARK   43  A    between atoms: _93  and  _94
REMARK   44  A    between atoms: _97  and  _99
REMARK   45  A    between atoms: _99  and  _100
REMARK   46  A    between atoms: _99  and  _102
REMARK   47  A    between atoms: _102  and  _103
REMARK   48  A    between atoms: _103  and  _104
REMARK   49  A    between atoms: _104  and  _105
REMARK   50  A    between atoms: _114  and  _116
REMARK   51  A    between atoms: _116  and  _117
REMARK   52  A    between atoms: _116  and  _119
REMARK   53  A    between atoms: _119  and  _120
REMARK   54  A    between atoms: _125  and  _127
REMARK   55  A    between atoms: _127  and  _128
REMARK   56  A    between atoms: _127  and  _130
REMARK   57  A    between atoms: _130  and  _131
REMARK   58  A    between atoms: _131  and  _132
REMARK   59  A    between atoms: _132  and  _133
REMARK   60  A    between atoms: _142  and  _144
REMARK   61  A    between atoms: _144  and  _145
REMARK   62  A    between atoms: _144  and  _147
REMARK   63  A    between atoms: _147  and  _148
REMARK   64  A    between atoms: _148  and  _149
REMARK   65  A    between atoms: _153  and  _154
REMARK   66  A    between atoms: _159  and  _161
REMARK   67  A    between atoms: _161  and  _162
REMARK   68  A    between atoms: _164  and  _166
REMARK   69  A    between atoms: _166  and  _167
REMARK   70  A    between atoms: _166  and  _169
REMARK   71  A    between atoms: _169  and  _170
REMARK   72  A    between atoms: _170  and  _171
REMARK   73  A    between atoms: _171  and  _172
REMARK   74  A    between atoms: _181  and  _183
REMARK   75  A    between atoms: _183  and  _184
REMARK   76  A    between atoms: _183  and  _186
REMARK   77  A    between atoms: _186  and  _187
REMARK   78  A    between atoms: _190  and  _192
REMARK   79  A    between atoms: _192  and  _193
REMARK   80  A    between atoms: _192  and  _195
REMARK   81  A    between atoms: _195  and  _196
REMARK   82  A    between atoms: _199  and  _201
REMARK   83  A    between atoms: _201  and  _202
REMARK   84  A    between atoms: _201  and  _204
REMARK   85  A    between atoms: _204  and  _205
REMARK   86  A    between atoms: _205  and  _206
REMARK   87  A    between atoms: _209  and  _211
REMARK   88  A    between atoms: _211  and  _212
REMARK   89  A    between atoms: _211  and  _214
REMARK   90  A    between atoms: _217  and  _219
REMARK   91  A    between atoms: _219  and  _220
REMARK   92  A    between atoms: _219  and  _222
REMARK   93  A    between atoms: _222  and  _223
REMARK   94  A    between atoms: _223  and  _224
REMARK   95  A    between atoms: _226  and  _228
REMARK   96  A    between atoms: _228  and  _229
REMARK   97  A    between atoms: _228  and  _231
REMARK   98  A    between atoms: _231  and  _232
REMARK   99  A    between atoms: _238  and  _240
REMARK  100  A    between atoms: _240  and  _241
REMARK  101  A    between atoms: _240  and  _243
REMARK  102  A    between atoms: _243  and  _244
REMARK  103  A    between atoms: _249  and  _250
REMARK  104  A    between atoms: _252  and  _254
REMARK  105  A    between atoms: _254  and  _255
REMARK  106  A    between atoms: _258  and  _260
REMARK  107  A    between atoms: _260  and  _261
REMARK  108  A    between atoms: _260  and  _263
REMARK  109  A    between atoms: _263  and  _264
REMARK  110  A    between atoms: _264  and  _265
REMARK  111  A    between atoms: _265  and  _266
REMARK  112  A    between atoms: _275  and  _277
REMARK  113  A    between atoms: _277  and  _278
REMARK  114  A    between atoms: _277  and  _280
REMARK  115  A    between atoms: _280  and  _281
REMARK  116  A    between atoms: _284  and  _286
REMARK  117  A    between atoms: _286  and  _287
REMARK  118  A    between atoms: _286  and  _289
REMARK  119  A    between atoms: _289  and  _290
REMARK  120  A    between atoms: _290  and  _291
REMARK  121  A    between atoms: _291  and  _292
REMARK  122  A    between atoms: _301  and  _303
REMARK  123  A    between atoms: _303  and  _304
REMARK  124  A    between atoms: _303  and  _306
REMARK  125  A    between atoms: _306  and  _307
REMARK  126  A    between atoms: _312  and  _314
REMARK  127  A    between atoms: _314  and  _315
REMARK  128  A    between atoms: _314  and  _317
REMARK  129  A    between atoms: _317  and  _318
REMARK  130  A    between atoms: _321  and  _323
REMARK  131  A    between atoms: _323  and  _324
REMARK  132  A    between atoms: _323  and  _326
REMARK  133  A    between atoms: _326  and  _327
REMARK  134  A    between atoms: _330  and  _332
REMARK  135  A    between atoms: _332  and  _333
REMARK  136  A    between atoms: _332  and  _335
REMARK  137  A    between atoms: _335  and  _336
REMARK  138  A    between atoms: _338  and  _340
REMARK  139  A    between atoms: _340  and  _341
REMARK  140  A    between atoms: _340  and  _343
REMARK  141  A    between atoms: _343  and  _344
REMARK  142  A    between atoms: _347  and  _349
REMARK  143  A    between atoms: _349  and  _350
REMARK  144  A    between atoms: _349  and  _352
REMARK  145  A    between atoms: _352  and  _353
REMARK  146  A    between atoms: _353  and  _354
REMARK  147  A    between atoms: _359  and  _361
REMARK  148  A    between atoms: _361  and  _362
REMARK  149  A    between atoms: _365  and  _367
REMARK  150  A    between atoms: _367  and  _368
REMARK  151  A    between atoms: _367  and  _370
REMARK  152  A    between atoms: _370  and  _371
REMARK  153  A    between atoms: _376  and  _377
REMARK  154  A    between atoms: _379  and  _381
REMARK  155  A    between atoms: _381  and  _382
REMARK  156  A    between atoms: _381  and  _384
REMARK  157  A    between atoms: _384  and  _385
REMARK  158  A    between atoms: _385  and  _386
REMARK  159  A    between atoms: _391  and  _393
REMARK  160  A    between atoms: _393  and  _394
REMARK  161  A    between atoms: _396  and  _398
REMARK  162  A    between atoms: _398  and  _399
REMARK  163  A    between atoms: _401  and  _403
REMARK  164  A    between atoms: _403  and  _404
REMARK  165  A    between atoms: _403  and  _406
REMARK  166  A    between atoms: _406  and  _407
REMARK  167  A    between atoms: _407  and  _408
REMARK  168  A    between atoms: _408  and  _409
REMARK  169  A    between atoms: _418  and  _420
REMARK  170  A    between atoms: _420  and  _421
REMARK  171  A    between atoms: _420  and  _423
REMARK  172  A    between atoms: _423  and  _424
REMARK  173  A    between atoms: _427  and  _429
REMARK  174  A    between atoms: _429  and  _430
REMARK  175  A    between atoms: _429  and  _432
REMARK  176  A    between atoms: _435  and  _437
REMARK  177  A    between atoms: _437  and  _438
REMARK  178  A    between atoms: _437  and  _440
REMARK  179  A    between atoms: _443  and  _445
REMARK  180  A    between atoms: _445  and  _446
REMARK  181  A    between atoms: _448  and  _450
REMARK  182  A    between atoms: _450  and  _451
REMARK  183  A    between atoms: _450  and  _453
REMARK  184  A    between atoms: _453  and  _454
REMARK  185  A    between atoms: _454  and  _455
REMARK  186  A    between atoms: _455  and  _456
REMARK  187  A    between atoms: _456  and  _457
REMARK  188  A    between atoms: _461  and  _463
REMARK  189  A    between atoms: _463  and  _464
REMARK  190  A    between atoms: _463  and  _466
REMARK  191  A    between atoms: _466  and  _467
REMARK  192  A    between atoms: _467  and  _468
REMARK  193  A    between atoms: _468  and  _469
REMARK  194  A    between atoms: _478  and  _480
REMARK  195  A    between atoms: _480  and  _481
REMARK  196  A    between atoms: _484  and  _486
REMARK  197  A    between atoms: _486  and  _487
REMARK  198  A    between atoms: _486  and  _489
REMARK  199  A    between atoms: _489  and  _490
REMARK  200  A    between atoms: _490  and  _491
REMARK  201  A    between atoms: _491  and  _492
REMARK  202  A    between atoms: _501  and  _503
REMARK  203  A    between atoms: _503  and  _504
REMARK  204  A    between atoms: _507  and  _509
REMARK  205  A    between atoms: _509  and  _510
REMARK  206  A    between atoms: _509  and  _512
REMARK  207  A    between atoms: _512  and  _513
REMARK  208  A    between atoms: _513  and  _514
REMARK  209  A    between atoms: _514  and  _515
REMARK  210  A    between atoms: _524  and  _526
REMARK  211  A    between atoms: _526  and  _527
REMARK  212  A    between atoms: _529  and  _531
REMARK  213  A    between atoms: _531  and  _532
REMARK  214  A    between atoms: _531  and  _534
REMARK  215  A    between atoms: _534  and  _535
REMARK  216  A    between atoms: _535  and  _536
REMARK  217  A    between atoms: _539  and  _541
REMARK  218  A    between atoms: _541  and  _542
REMARK  219  A    between atoms: _541  and  _544
REMARK  220  A    between atoms: _544  and  _545
REMARK  221  A    between atoms: _548  and  _550
REMARK  222  A    between atoms: _550  and  _551
REMARK  223  A    between atoms: _550  and  _553
REMARK  224  A    between atoms: _553  and  _554
REMARK  225  A    between atoms: _557  and  _559
REMARK  226  A    between atoms: _559  and  _560
REMARK  227  A    between atoms: _559  and  _562
REMARK  228  A    between atoms: _562  and  _563
REMARK  229  A    between atoms: _563  and  _564
REMARK  230  A    between atoms: _564  and  _565
REMARK  231  A    between atoms: _574  and  _576
REMARK  232  A    between atoms: _576  and  _577
REMARK  233  A    between atoms: _576  and  _579
REMARK  234  A    between atoms: _579  and  _580
REMARK  235  A    between atoms: _583  and  _585
REMARK  236  A    between atoms: _585  and  _586
REMARK  237  A    between atoms: _585  and  _588
REMARK  238  A    between atoms: _588  and  _589
REMARK  239  A    between atoms: _589  and  _590
REMARK  240  A    between atoms: _593  and  _595
REMARK  241  A    between atoms: _595  and  _596
REMARK  242  A    between atoms: _595  and  _598
REMARK  243  A    between atoms: _598  and  _599
REMARK  244  A    between atoms: _599  and  _600
REMARK  245  A    between atoms: _605  and  _607
REMARK  246  A    between atoms: _607  and  _608
REMARK  247  A    between atoms: _607  and  _610
REMARK  248  A    between atoms: _610  and  _611
REMARK  249  A    between atoms: _611  and  _612
REMARK  250  A    between atoms: _615  and  _617
REMARK  251  A    between atoms: _617  and  _618
REMARK  252  A    between atoms: _617  and  _620
REMARK  253  A    between atoms: _620  and  _621
REMARK  254  A    between atoms: _627  and  _629
REMARK  255  A    between atoms: _629  and  _630
REMARK  256  A    between atoms: _629  and  _632
REMARK  257  A    between atoms: _632  and  _633
REMARK  258  A    between atoms: _639  and  _641
REMARK  259  A    between atoms: _641  and  _642
REMARK  260  A    between atoms: _641  and  _644
REMARK  261  A    between atoms: _644  and  _645
REMARK  262  A    between atoms: _648  and  _650
REMARK  263  A    between atoms: _650  and  _651
REMARK  264  A    between atoms: _650  and  _653
REMARK  265  A    between atoms: _653  and  _654
REMARK  266  A    between atoms: _659  and  _660
REMARK  267  A    between atoms: _662  and  _664
REMARK  268  A    between atoms: _664  and  _665
REMARK  269  A    between atoms: _668  and  _670
REMARK  270  A    between atoms: _670  and  _671
REMARK  271  A    between atoms: _670  and  _673
REMARK  272  A    between atoms: _673  and  _674
REMARK  273  A    between atoms: _674  and  _675
REMARK  274  A    between atoms: _681  and  _682
REMARK  275  A    between atoms: _687  and  _689
REMARK  276  A    between atoms: _689  and  _690
REMARK  277  A    between atoms: _689  and  _692
REMARK  278  A    between atoms: _692  and  _693
REMARK  279  A    between atoms: _696  and  _698
REMARK  280  A    between atoms: _698  and  _699
REMARK  281  A    between atoms: _698  and  _701
REMARK  282  A    between atoms: _701  and  _702
REMARK  283  A    between atoms: _702  and  _703
REMARK  284  A    between atoms: _706  and  _708
REMARK  285  A    between atoms: _708  and  _709
REMARK  286  A    between atoms: _708  and  _711
REMARK                            x       y       z     vdW  Elec       q    Type
REMARK                         _______ _______ _______ _____ _____    ______ ____
ROOT
ATOM      1  CB  ARG A   2      28.034  96.127   8.564  0.00  0.00    +0.031 C 
ENDROOT
BRANCH   1   2
ATOM      2  CA  ARG A   2      26.821  95.859   7.658  0.00  0.00    +0.137 C 
BRANCH   2   4
ATOM      3  C   ALA A   1      24.713  94.638   7.756  0.00  0.00    +0.238 C 
ATOM      4  N   ARG A   2      25.874  94.970   8.317  0.00  0.00    -0.298 N 
ATOM      5  H   ARG A   2      26.112  94.583   9.253  0.00  0.00    +0.150 HD
ATOM      6  O   ALA A   1      24.368  95.058   6.646  0.00  0.00    -0.274 OA
BRANCH   3   7
ATOM      7  CA  ALA A   1      23.820  93.677   8.572  0.00  0.00    +0.145 C 
ATOM      8  CB  ALA A   1      23.135  94.419   9.725  0.00  0.00    +0.028 C 
BRANCH   7   9
ATOM      9  N   ALA A   1      24.633  92.587   9.128  0.00  0.00    -0.238 NA
ATOM     10  H   ALA A   1      24.718  92.500  10.161  0.00  0.00    +0.142 HD
ENDBRANCH   7   9
ENDBRANCH   3   7
ENDBRANCH   2   4
BRANCH   2  11
ATOM     11  C   ARG A   2      27.307  95.309   6.342  0.00  0.00    +0.227 C 
ATOM     12  O   ARG A   2      27.216  95.971   5.303  0.00  0.00    -0.286 OA
ENDBRANCH   2  11
ENDBRANCH   1   2
BRANCH   1  13
ATOM     13  CG  ARG A   2      29.111  97.032   7.930  0.00  0.00    +0.045 C 
BRANCH  13  14
ATOM     14  CD  ARG A   2      30.015  97.625   9.020  0.00  0.00    +0.174 C 
BRANCH  14  15
ATOM     15  NE  ARG A   2      29.161  98.202  10.030  0.00  0.00    -0.265 N 
ATOM     16  CZ  ARG A   2      29.233  97.998  11.337  0.00  0.00    +0.342 C 
ATOM     17  NH2 ARG A   2      28.282  98.524  12.107  0.00  0.00    -0.292 N 
ATOM     18 HH21 ARG A   2      28.309  98.382  13.137  0.00  0.00    +0.255 HD
ATOM     19 HH22 ARG A   2      27.512  99.076  11.678  0.00  0.00    +0.255 HD
ATOM     20  NH1 ARG A   2      30.155  97.212  11.879  0.00  0.00    -0.292 N 
ATOM     21 HH11 ARG A   2      30.181  97.075  12.910  0.00  0.00    +0.255 HD
ATOM     22 HH12 ARG A   2      30.851  96.733  11.273  0.00  0.00    +0.255 HD
ATOM     23  HE  ARG A   2      28.413  98.843   9.698  0.00  0.00    +0.259 HD
ENDBRANCH  14  15
ENDBRANCH  13  14
ENDBRANCH   1  13
TORSDOF 8
REMARK  Name = ../refined-set-2016/4tmk/4tmk_pocket.pdb
REMARK  286 active torsions:
REMARK  status: ('A' for Active; 'I' for Inactive)
REMARK    1  A    between atoms: _1  and  _3
REMARK    2  A    between atoms: _3  and  _4
REMARK    3  A    between atoms: _3  and  _6
REMARK    4  A    between atoms: _6  and  _7
REMARK    5  A    between atoms: _10  and  _12
REMARK    6  A    between atoms: _12  and  _13
REMARK    7  A    between atoms: _12  and  _15
REMARK    8  A    between atoms: _15  and  _16
REMARK    9  A    between atoms: _16  and  _17
REMARK   10  A    between atoms: _20  and  _22
REMARK   11  A    between atoms: _22  and  _23
REMARK   12  A    between atoms: _25  and  _27
REMARK   13  A    between atoms: _27  and  _28
REMARK   14  A    between atoms: _27  and  _30
REMARK   15  A    between atoms: _30  and  _31
REMARK   16  A    between atoms: _34  and  _36
REMARK   17  A    between atoms: _36  and  _37
REMARK   18  A    between atoms: _36  and  _39
REMARK   19  A    between atoms: _39  and  _40
REMARK   20  A    between atoms: _40  and  _41
REMARK   21  A    between atoms: _44  and  _46
REMARK   22  A    between atoms: _46  and  _47
REMARK   23  A    between atoms: _49  and  _51
REMARK   24  A    between atoms: _51  and  _52
REMARK   25  A    between atoms: _55  and  _57
REMARK   26  A    between atoms: _57  and  _58
REMARK   27  A    between atoms: _60  and  _62
REMARK   28  A    between atoms: _62  and  _63
REMARK   29  A    between atoms: _62  and  _65
REMARK   30  A    between atoms: _65  and  _66
REMARK   31  A    between atoms: _66  and  _67
REMARK   32  A    between atoms: _67  and  _68
REMARK   33  A    between atoms: _68  and  _69
REMARK   34  A    between atoms: _73  and  _75
REMARK   35  A    between atoms: _75  and  _76
REMARK   36  A    between atoms: _75  and  _78
REMARK   37  A    between atoms: _78  and  _79
REMARK   38  A    between atoms: _82  and  _84
REMARK   39  A    between atoms: _84  and  _85
REMARK   40  A    between atoms: _84  and  _87
REMARK   41  A    between atoms: _87  and  _88
REMARK   42  A    between atoms: _91  and  _93
REMARK   43  A    between atoms: _93  and  _94
REMARK   44  A    between atoms: _97  and  _99
REMARK   45  A    between atoms: _99  and  _100
REMARK   46  A    between atoms: _99  and  _102
REMARK   47  A    between atoms: _102  and  _103
REMARK   48  A    between atoms: _103  and  _104
REMARK   49  A    between atoms: _104  and  _105
REMARK   50  A    between atoms: _114  and  _116
REMARK   51  A    between atoms: _116  and  _117
REMARK   52  A    between atoms: _116  and  _119
REMARK   53  A    between atoms: _119  and  _120
REMARK   54  A    between atoms: _125  and  _127
REMARK   55  A    between atoms: _127  and  _128
REMARK   56  A    between atoms: _127  and  _130
REMARK   57  A    between atoms: _130  and  _131
REMARK   58  A    between atoms: _131  and  _132
REMARK   59  A    between atoms: _132  and  _133
REMARK   60  A    between atoms: _142  and  _144
REMARK   61  A    between atoms: _144  and  _145
REMARK   62  A    between atoms: _144  and  _147
REMARK   63  A    between atoms: _147  and  _148
REMARK   64  A    between atoms: _148  and  _149
REMARK   65  A    between atoms: _153  and  _154
REMARK   66  A    between atoms: _159  and  _161
REMARK   67  A    between atoms: _161  and  _162
REMARK   68  A    between atoms: _164  and  _166
REMARK   69  A    between atoms: _166  and  _167
REMARK   70  A    between atoms: _166  and  _169
REMARK   71  A    between atoms: _169  and  _170
REMARK   72  A    between atoms: _170  and  _171
REMARK   73  A    between atoms: _171  and  _172
REMARK   74  A    between atoms: _181  and  _183
REMARK   75  A    between atoms: _183  and  _184
REMARK   76  A    between atoms: _183  and  _186
REMARK   77  A    between atoms: _186  and  _187
REMARK   78  A    between atoms: _190  and  _192
REMARK   79  A    between atoms: _192  and  _193
REMARK   80  A    between atoms: _192  and  _195
REMARK   81  A    between atoms: _195  and  _196
REMARK   82  A    between atoms: _199  and  _201
REMARK   83  A    between atoms: _201  and  _202
REMARK   84  A    between atoms: _201  and  _204
REMARK   85  A    between atoms: _204  and  _205
REMARK   86  A    between atoms: _205  and  _206
REMARK   87  A    between atoms: _209  and  _211
REMARK   88  A    between atoms: _211  and  _212
REMARK   89  A    between atoms: _211  and  _214
REMARK   90  A    between atoms: _217  and  _219
REMARK   91  A    between atoms: _219  and  _220
REMARK   92  A    between atoms: _219  and  _222
REMARK   93  A    between atoms: _222  and  _223
REMARK   94  A    between atoms: _223  and  _224
REMARK   95  A    between atoms: _226  and  _228
REMARK   96  A    between atoms: _228  and  _229
REMARK   97  A    between atoms: _228  and  _231
REMARK   98  A    between atoms: _231  and  _232
REMARK   99  A    between atoms: _238  and  _240
REMARK  100  A    between atoms: _240  and  _241
REMARK  101  A    between atoms: _240  and  _243
REMARK  102  A    between atoms: _243  and  _244
REMARK  103  A    between atoms: _249  and  _250
REMARK  104  A    between atoms: _252  and  _254
REMARK  105  A    between atoms: _254  and  _255
REMARK  106  A    between atoms: _258  and  _260
REMARK  107  A    between atoms: _260  and  _261
REMARK  108  A    between atoms: _260  and  _263
REMARK  109  A    between atoms: _263  and  _264
REMARK  110  A    between atoms: _264  and  _265
REMARK  111  A    between atoms: _265  and  _266
REMARK  112  A    between atoms: _275  and  _277
REMARK  113  A    between atoms: _277  and  _278
REMARK  114  A    between atoms: _277  and  _280
REMARK  115  A    between atoms: _280  and  _281
REMARK  116  A    between atoms: _284  and  _286
REMARK  117  A    between atoms: _286  and  _287
REMARK  118  A    between atoms: _286  and  _289
REMARK  119  A    between atoms: _289  and  _290
REMARK  120  A    between atoms: _290  and  _291
REMARK  121  A    between atoms: _291  and  _292
REMARK  122  A    between atoms: _301  and  _303
REMARK  123  A    between atoms: _303  and  _304
REMARK  124  A    between atoms: _303  and  _306
REMARK  125  A    between atoms: _306  and  _307
REMARK  126  A    between atoms: _312  and  _314
REMARK  127  A    between atoms: _314  and  _315
REMARK  128  A    between atoms: _314  and  _317
REMARK  129  A    between atoms: _317  and  _318
REMARK  130  A    between atoms: _321  and  _323
REMARK  131  A    between atoms: _323  and  _324
REMARK  132  A    between atoms: _323  and  _326
REMARK  133  A    between atoms: _326  and  _327
REMARK  134  A    between atoms: _330  and  _332
REMARK  135  A    between atoms: _332  and  _333
REMARK  136  A    between atoms: _332  and  _335
REMARK  137  A    between atoms: _335  and  _336
REMARK  138  A    between atoms: _338  and  _340
REMARK  139  A    between atoms: _340  and  _341
REMARK  140  A    between atoms: _340  and  _343
REMARK  141  A    between atoms: _343  and  _344
REMARK  142  A    between atoms: _347  and  _349
REMARK  143  A    between atoms: _349  and  _350
REMARK  144  A    between atoms: _349  and  _352
REMARK  145  A    between atoms: _352  and  _353
REMARK  146  A    between atoms: _353  and  _354
REMARK  147  A    between atoms: _359  and  _361
REMARK  148  A    between atoms: _361  and  _362
REMARK  149  A    between atoms: _365  and  _367
REMARK  150  A    between atoms: _367  and  _368
REMARK  151  A    between atoms: _367  and  _370
REMARK  152  A    between atoms: _370  and  _371
REMARK  153  A    between atoms: _376  and  _377
REMARK  154  A    between atoms: _379  and  _381
REMARK  155  A    between atoms: _381  and  _382
REMARK  156  A    between atoms: _381  and  _384
REMARK  157  A    between atoms: _384  and  _385
REMARK  158  A    between atoms: _385  and  _386
REMARK  159  A    between atoms: _391  and  _393
REMARK  160  A    between atoms: _393  and  _394
REMARK  161  A    between atoms: _396  and  _398
REMARK  162  A    between atoms: _398  and  _399
REMARK  163  A    between atoms: _401  and  _403
REMARK  164  A    between atoms: _403  and  _404
REMARK  165  A    between atoms: _403  and  _406
REMARK  166  A    between atoms: _406  and  _407
REMARK  167  A    between atoms: _407  and  _408
REMARK  168  A    between atoms: _408  and  _409
REMARK  169  A    between atoms: _418  and  _420
REMARK  170  A    between atoms: _420  and  _421
REMARK  171  A    between atoms: _420  and  _423
REMARK  172  A    between atoms: _423  and  _424
REMARK  173  A    between atoms: _427  and  _429
REMARK  174  A    between atoms: _429  and  _430
REMARK  175  A    between atoms: _429  and  _432
REMARK  176  A    between atoms: _435  and  _437
REMARK  177  A    between atoms: _437  and  _438
REMARK  178  A    between atoms: _437  and  _440
REMARK  179  A    between atoms: _443  and  _445
REMARK  180  A    between atoms: _445  and  _446
REMARK  181  A    between atoms: _448  and  _450
REMARK  182  A    between atoms: _450  and  _451
REMARK  183  A    between atoms: _450  and  _453
REMARK  184  A    between atoms: _453  and  _454
REMARK  185  A    between atoms: _454  and  _455
REMARK  186  A    between atoms: _455  and  _456
REMARK  187  A    between atoms: _456  and  _457
REMARK  188  A    between atoms: _461  and  _463
REMARK  189  A    between atoms: _463  and  _464
REMARK  190  A    between atoms: _463  and  _466
REMARK  191  A    between atoms: _466  and  _467
REMARK  192  A    between atoms: _467  and  _468
REMARK  193  A    between atoms: _468  and  _469
REMARK  194  A    between atoms: _478  and  _480
REMARK  195  A    between atoms: _480  and  _481
REMARK  196  A    between atoms: _484  and  _486
REMARK  197  A    between atoms: _486  and  _487
REMARK  198  A    between atoms: _486  and  _489
REMARK  199  A    between atoms: _489  and  _490
REMARK  200  A    between atoms: _490  and  _491
REMARK  201  A    between atoms: _491  and  _492
REMARK  202  A    between atoms: _501  and  _503
REMARK  203  A    between atoms: _503  and  _504
REMARK  204  A    between atoms: _507  and  _509
REMARK  205  A    between atoms: _509  and  _510
REMARK  206  A    between atoms: _509  and  _512
REMARK  207  A    between atoms: _512  and  _513
REMARK  208  A    between atoms: _513  and  _514
REMARK  209  A    between atoms: _514  and  _515
REMARK  210  A    between atoms: _524  and  _526
REMARK  211  A    between atoms: _526  and  _527
REMARK  212  A    between atoms: _529  and  _531
REMARK  213  A    between atoms: _531  and  _532
REMARK  214  A    between atoms: _531  and  _534
REMARK  215  A    between atoms: _534  and  _535
REMARK  216  A    between atoms: _535  and  _536
REMARK  217  A    between atoms: _539  and  _541
REMARK  218  A    between atoms: _541  and  _542
REMARK  219  A    between atoms: _541  and  _544
REMARK  220  A    between atoms: _544  and  _545
REMARK  221  A    between atoms: _548  and  _550
REMARK  222  A    between atoms: _550  and  _551
REMARK  223  A    between atoms: _550  and  _553
REMARK  224  A    between atoms: _553  and  _554
REMARK  225  A    between atoms: _557  and  _559
REMARK  226  A    between atoms: _559  and  _560
REMARK  227  A    between atoms: _559  and  _562
REMARK  228  A    between atoms: _562  and  _563
REMARK  229  A    between atoms: _563  and  _564
REMARK  230  A    between atoms: _564  and  _565
REMARK  231  A    between atoms: _574  and  _576
REMARK  232  A    between atoms: _576  and  _577
REMARK  233  A    between atoms: _576  and  _579
REMARK  234  A    between atoms: _579  and  _580
REMARK  235  A    between atoms: _583  and  _585
REMARK  236  A    between atoms: _585  and  _586
REMARK  237  A    between atoms: _585  and  _588
REMARK  238  A    between atoms: _588  and  _589
REMARK  239  A    between atoms: _589  and  _590
REMARK  240  A    between atoms: _593  and  _595
REMARK  241  A    between atoms: _595  and  _596
REMARK  242  A    between atoms: _595  and  _598
REMARK  243  A    between atoms: _598  and  _599
REMARK  244  A    between atoms: _599  and  _600
REMARK  245  A    between atoms: _605  and  _607
REMARK  246  A    between atoms: _607  and  _608
REMARK  247  A    between atoms: _607  and  _610
REMARK  248  A    between atoms: _610  and  _611
REMARK  249  A    between atoms: _611  and  _612
REMARK  250  A    between atoms: _615  and  _617
REMARK  251  A    between atoms: _617  and  _618
REMARK  252  A    between atoms: _617  and  _620
REMARK  253  A    between atoms: _620  and  _621
REMARK  254  A    between atoms: _627  and  _629
REMARK  255  A    between atoms: _629  and  _630
REMARK  256  A    between atoms: _629  and  _632
REMARK  257  A    between atoms: _632  and  _633
REMARK  258  A    between atoms: _639  and  _641
REMARK  259  A    between atoms: _641  and  _642
REMARK  260  A    between atoms: _641  and  _644
REMARK  261  A    between atoms: _644  and  _645
REMARK  262  A    between atoms: _648  and  _650
REMARK  263  A    between atoms: _650  and  _651
REMARK  264  A    between atoms: _650  and  _653
REMARK  265  A    between atoms: _653  and  _654
REMARK  266  A    between atoms: _659  and  _660
REMARK  267  A    between atoms: _662  and  _664
REMARK  268  A    between atoms: _664  and  _665
REMARK  269  A    between atoms: _668  and  _670
REMARK  270  A    between atoms: _670  and  _671
REMARK  271  A    between atoms: _670  and  _673
REMARK  272  A    between atoms: _673  and  _674
REMARK  273  A    between atoms: _674  and  _675
REMARK  274  A    between atoms: _681  and  _682
REMARK  275  A    between atoms: _687  and  _689
REMARK  276  A    between atoms: _689  and  _690
REMARK  277  A    between atoms: _689  and  _692
REMARK  278  A    between atoms: _692  and  _693
REMARK  279  A    between atoms: _696  and  _698
REMARK  280  A    between atoms: _698  and  _699
REMARK  281  A    between atoms: _698  and  _701
REMARK  282  A    between atoms: _701  and  _702
REMARK  283  A    between atoms: _702  and  _703
REMARK  284  A    between atoms: _706  and  _708
REMARK  285  A    between atoms: _708  and  _709
REMARK  286  A    between atoms: _708  and  _711
REMARK                            x       y       z     vdW  Elec       q    Type
REMARK                         _______ _______ _______ _____ _____    ______ ____
ROOT
ATOM      1  CA  SER A   6      29.764 102.357  15.835  0.00  0.00    +0.178 C 
ENDROOT
BRANCH   1   2
ATOM      2  C   SER A   6      30.088 101.044  16.542  0.00  0.00    +0.243 C 
ATOM      3  O   SER A   6      29.987 100.939  17.775  0.00  0.00    -0.273 OA
ATOM      4  N   THR A   7      30.460 100.029  15.762  0.00  0.00    -0.295 N 
ATOM      5  H   THR A   7      30.509 100.151  14.730  0.00  0.00    +0.150 HD
BRANCH   4   6
ATOM      6  CA  THR A   7      30.802  98.730  16.375  0.00  0.00    +0.176 C 
BRANCH   6   7
ATOM      7  C   THR A   7      32.038  98.863  17.286  0.00  0.00    +0.243 C 
ATOM      8  O   THR A   7      32.050  98.365  18.412  0.00  0.00    -0.273 OA
ATOM      9  N   GLN A   8      33.066  99.552  16.793  0.00  0.00    -0.297 N 
ATOM     10  H   GLN A   8      32.999  99.965  15.841  0.00  0.00    +0.150 HD
BRANCH   9  11
ATOM     11  CA  GLN A   8      34.279  99.733  17.570  0.00  0.00    +0.149 C 
BRANCH  11  12
ATOM     12  C   GLN A   8      33.992 100.467  18.868  0.00  0.00    +0.241 C 
ATOM     13  O   GLN A   8      34.503 100.092  19.934  0.00  0.00    -0.273 OA
ATOM     14  N   ALA A   9      33.140 101.492  18.807  0.00  0.00    -0.297 N 
ATOM     15  H   ALA A   9      32.692 101.745  17.903  0.00  0.00    +0.150 HD
BRANCH  14  16
ATOM     16  CA  ALA A   9      32.839 102.258  20.015  0.00  0.00    +0.149 C 
ATOM     17  CB  ALA A   9      32.291 103.621  19.638  0.00  0.00    +0.031 C 
BRANCH  16  18
ATOM     18  C   ALA A   9      31.876 101.559  20.964  0.00  0.00    +0.241 C 
ATOM     19  O   ALA A   9      32.149 101.455  22.170  0.00  0.00    -0.273 OA
ATOM     20  N   TYR A  10      30.754 101.065  20.436  0.00  0.00    -0.297 N 
ATOM     21  H   TYR A  10      30.577 101.152  19.415  0.00  0.00    +0.150 HD
BRANCH  20  22
ATOM     22  CA  TYR A  10      29.768 100.397  21.302  0.00  0.00    +0.153 C 
BRANCH  22  23
ATOM     23  C   TYR A  10      30.156  98.987  21.771  0.00  0.00    +0.241 C 
ATOM     24  O   TYR A  10      30.096  98.674  22.964  0.00  0.00    -0.273 OA
ATOM     25  N   GLN A  11      30.547  98.128  20.843  0.00  0.00    -0.297 N 
ATOM     26  H   GLN A  11      30.594  98.413  19.844  0.00  0.00    +0.150 HD
BRANCH  25  27
ATOM     27  CA  GLN A  11      30.910  96.776  21.246  0.00  0.00    +0.149 C 
BRANCH  27  28
ATOM     28  C   GLN A  11      32.322  96.776  21.834  0.00  0.00    +0.241 C 
ATOM     29  O   GLN A  11      32.623  96.032  22.774  0.00  0.00    -0.273 OA
ATOM     30  N   GLY A  12      33.174  97.641  21.297  0.00  0.00    -0.296 N 
ATOM     31  H   GLY A  12      32.873  98.245  20.506  0.00  0.00    +0.150 HD
BRANCH  30  32
ATOM     32  CA  GLY A  12      34.520  97.742  21.814  0.00  0.00    +0.163 C 
BRANCH  32  33
ATOM     33  C   GLY A  12      34.497  98.472  23.140  0.00  0.00    +0.229 C 
ATOM     34  O   GLY A  12      34.796  97.903  24.191  0.00  0.00    -0.286 OA
ENDBRANCH  32  33
ENDBRANCH  30  32
ENDBRANCH  27  28
BRANCH  27  35
ATOM     35  CB  GLN A  11      30.780  95.847  20.046  0.00  0.00    +0.039 C 
BRANCH  35  36
ATOM     36  CG  GLN A  11      29.329  95.460  19.784  0.00  0.00    +0.087 C 
BRANCH  36  37
ATOM     37  CD  GLN A  11      28.450  96.639  19.349  0.00  0.00    +0.219 C 
ATOM     38  NE2 GLN A  11      27.480  96.986  20.178  0.00  0.00    -0.329 N 
ATOM     39 HE21 GLN A  11      27.357  96.477  21.077  0.00  0.00    +0.145 HD
ATOM     40 HE22 GLN A  11      26.840  97.768  19.931  0.00  0.00    +0.145 HD
ATOM     41  OE1 GLN A  11      28.635  97.208  18.278  0.00  0.00    -0.275 OA
ENDBRANCH  36  37
ENDBRANCH  35  36
ENDBRANCH  27  35
ENDBRANCH  25  27
ENDBRANCH  22  23
BRANCH  22  42
ATOM     42  CB  TYR A  10      28.401 100.348  20.607  0.00  0.00    +0.055 C 
BRANCH  42  43
ATOM     43  CG  TYR A  10      27.663 101.680  20.613  0.00  0.00    -0.020 A 
ATOM     44  CD2 TYR A  10      26.670 101.937  21.549  0.00  0.00    -0.001 A 
ATOM     45  CE2 TYR A  10      25.973 103.138  21.548  0.00  0.00    +0.036 A 
ATOM     46  CZ  TYR A  10      26.264 104.101  20.604  0.00  0.00    +0.134 A 
ATOM     47  CE1 TYR A  10      27.248 103.886  19.653  0.00  0.00    +0.036 A 
ATOM     48  CD1 TYR A  10      27.947 102.680  19.659  0.00  0.00    -0.001 A 
BRANCH  46  49
ATOM     49  OH  TYR A  10      25.551 105.280  20.646  0.00  0.00    -0.506 OA
ATOM     50  HH  TYR A  10      25.697 105.721  21.520  0.00  0.00    +0.292 HD
ENDBRANCH  46  49
ENDBRANCH  42  43
ENDBRANCH  22  42
ENDBRANCH  20  22
ENDBRANCH  16  18
ENDBRANCH  14  16
ENDBRANCH  11  12
BRANCH  11  51
ATOM     51  CB  GLN A   8      35.321 100.485  16.736  0.00  0.00    +0.039 C 
BRANCH  51  52
ATOM     52  CG  GLN A   8      35.678  99.778  15.432  0.00  0.00    +0.087 C 
BRANCH  52  53
ATOM     53  CD  GLN A   8      36.736 100.521  14.637  0.00  0.00    +0.219 C 
ATOM     54  OE1 GLN A   8      37.701 101.038  15.211  0.00  0.00    -0.275 OA
ATOM     55  NE2 GLN A   8      36.568 100.584  13.311  0.00  0.00    -0.329 N 
ATOM     56 HE21 GLN A   8      35.741 100.134  12.870  0.00  0.00    +0.145 HD
ATOM     57 HE22 GLN A   8      37.265 101.083  12.722  0.00  0.00    +0.145 HD
ENDBRANCH  52  53
ENDBRANCH  51  52
ENDBRANCH  11  51
ENDBRANCH   9  11
ENDBRANCH   6   7
BRANCH   6  58
ATOM     58  CB  THR A   7      31.109  97.622  15.316  0.00  0.00    +0.137 C 
ATOM     59  CG2 THR A   7      31.453  96.312  16.021  0.00  0.00    +0.034 C 
BRANCH  58  60
ATOM     60  OG1 THR A   7      29.968  97.377  14.490  0.00  0.00    -0.382 OA
ATOM     61  HG1 THR A   7      29.212  97.078  15.054  0.00  0.00    +0.210 HD
ENDBRANCH  58  60
ENDBRANCH   6  58
ENDBRANCH   4   6
ENDBRANCH   1   2
BRANCH   1  64
ATOM     62  C   LEU A   5      32.066 102.770  15.158  0.00  0.00    +0.241 C 
ATOM     63  O   LEU A   5      32.447 102.723  16.315  0.00  0.00    -0.273 OA
ATOM     64  N   SER A   6      30.791 102.615  14.826  0.00  0.00    -0.295 N 
ATOM     65  H   SER A   6      30.515 102.678  13.825  0.00  0.00    +0.150 HD
BRANCH  62  66
ATOM     66  CA  LEU A   5      33.040 103.008  14.024  0.00  0.00    +0.149 C 
BRANCH  66  69
ATOM     67  C   ASP A   4      32.390 101.026  12.824  0.00  0.00    +0.241 C 
ATOM     68  O   ASP A   4      32.569 100.362  13.848  0.00  0.00    -0.273 OA
ATOM     69  N   LEU A   5      32.584 102.341  12.808  0.00  0.00    -0.297 N 
ATOM     70  H   LEU A   5      32.413 102.888  11.940  0.00  0.00    +0.150 HD
BRANCH  67  71
ATOM     71  CA  ASP A   4      31.921 100.364  11.545  0.00  0.00    +0.160 C 
BRANCH  71  74
ATOM     72  C   HIS A   3      29.914 101.663  11.062  0.00  0.00    +0.241 C 
ATOM     73  O   HIS A   3      29.553 101.563  12.226  0.00  0.00    -0.273 OA
ATOM     74  N   ASP A   4      31.067 101.154  10.635  0.00  0.00    -0.297 N 
ATOM     75  H   ASP A   4      31.369 101.314   9.653  0.00  0.00    +0.150 HD
BRANCH  72  76
ATOM     76  CA  HIS A   3      29.023 102.410  10.076  0.00  0.00    +0.155 C 
BRANCH  76  78
ATOM     77  C   ARG A   2      27.237 104.026  10.418  0.00  0.00    +0.241 C 
ATOM     78  N   HIS A   3      28.336 103.425  10.850  0.00  0.00    -0.297 N 
ATOM     79  H   HIS A   3      28.720 103.691  11.779  0.00  0.00    +0.150 HD
ATOM     80  O   ARG A   2      26.764 103.845   9.290  0.00  0.00    -0.273 OA
BRANCH  77  81
ATOM     81  CA  ARG A   2      26.615 105.003  11.395  0.00  0.00    +0.149 C 
BRANCH  81  83
ATOM     82  C   ASP A   1      24.718 106.033  10.207  0.00  0.00    +0.239 C 
ATOM     83  N   ARG A   2      25.954 106.088  10.688  0.00  0.00    -0.297 N 
ATOM     84  H   ARG A   2      26.487 106.970  10.549  0.00  0.00    +0.150 HD
ATOM     85  O   ASP A   1      23.989 105.048  10.313  0.00  0.00    -0.274 OA
BRANCH  82  86
ATOM     86  CA  ASP A   1      24.242 107.285   9.462  0.00  0.00    +0.156 C 
BRANCH  86  87
ATOM     87  N   ASP A   1      24.511 106.921   8.084  0.00  0.00    -0.238 NA
ATOM     88  H   ASP A   1      23.855 106.286   7.587  0.00  0.00    +0.142 HD
ENDBRANCH  86  87
BRANCH  86  89
ATOM     89  CB  ASP A   1      22.742 107.509   9.673  0.00  0.00    +0.140 C 
BRANCH  89  90
ATOM     90  CG  ASP A   1      22.412 107.956  11.074  0.00  0.00    +0.367 C 
ATOM     91  OD2 ASP A   1      23.188 107.683  12.005  0.00  0.00    -0.246 OA
ATOM     92  OD1 ASP A   1      21.362 108.591  11.258  0.00  0.00    -0.246 OA
ENDBRANCH  89  90
ENDBRANCH  86  89
ENDBRANCH  82  86
ENDBRANCH  81  83
BRANCH  81  93
ATOM     93  CB  ARG A   2      25.644 104.251  12.295  0.00  0.00    +0.033 C 
BRANCH  93  94
ATOM     94  CG  ARG A   2      25.164 105.023  13.493  0.00  0.00    +0.045 C 
BRANCH  94  95
ATOM     95  CD  ARG A   2      24.521 104.103  14.504  0.00  0.00    +0.174 C 
BRANCH  95  96
ATOM     96  NE  ARG A   2      23.964 104.843  15.635  0.00  0.00    -0.265 N 
ATOM     97  CZ  ARG A   2      24.687 105.365  16.623  0.00  0.00    +0.342 C 
ATOM     98  NH2 ARG A   2      24.088 106.048  17.596  0.00  0.00    -0.292 N 
ATOM     99 HH21 ARG A   2      24.652 106.456  18.368  0.00  0.00    +0.255 HD
ATOM    100 HH22 ARG A   2      23.056 106.173  17.584  0.00  0.00    +0.255 HD
ATOM    101  NH1 ARG A   2      26.013 105.225  16.625  0.00  0.00    -0.292 N 
ATOM    102 HH11 ARG A   2      26.578 105.633  17.397  0.00  0.00    +0.255 HD
ATOM    103 HH12 ARG A   2      26.482 104.708  15.854  0.00  0.00    +0.255 HD
ATOM    104  HE  ARG A   2      22.932 104.970  15.670  0.00  0.00    +0.259 HD
ENDBRANCH  95  96
ENDBRANCH  94  95
ENDBRANCH  93  94
ENDBRANCH  81  93
ENDBRANCH  77  81
ENDBRANCH  76  78
BRANCH  76 105
ATOM    105  CB  HIS A   3      29.829 103.000   8.932  0.00  0.00    +0.076 C 
BRANCH 105 106
ATOM    106  CG  HIS A   3      30.468 101.965   8.054  0.00  0.00    +0.082 A 
ATOM    107  CD2 HIS A   3      31.763 101.773   7.697  0.00  0.00    +0.115 A 
ATOM    108  NE2 HIS A   3      31.795 100.694   6.846  0.00  0.00    -0.221 NA
ATOM    109  CE1 HIS A   3      30.565 100.235   6.688  0.00  0.00    +0.199 A 
ATOM    110  ND1 HIS A   3      29.746 100.982   7.408  0.00  0.00    -0.227 NA
ENDBRANCH 105 106
ENDBRANCH  76 105
ENDBRANCH  72  76
ENDBRANCH  71  74
BRANCH  71 111
ATOM    111  CB  ASP A   4      33.132  99.814  10.784  0.00  0.00    +0.143 C 
BRANCH 111 112
ATOM    112  CG  ASP A   4      33.741  98.600  11.462  0.00  0.00    +0.367 C 
ATOM    113  OD2 ASP A   4      34.846  98.722  12.031  0.00  0.00    -0.246 OA
ATOM    114  OD1 ASP A   4      33.111  97.526  11.434  0.00  0.00    -0.246 OA
ENDBRANCH 111 112
ENDBRANCH  71 111
ENDBRANCH  67  71
ENDBRANCH  66  69
BRANCH  66 115
ATOM    115  CB  LEU A   5      33.225 104.521  13.780  0.00  0.00    +0.029 C 
BRANCH 115 116
ATOM    116  CG  LEU A   5      34.069 105.311  14.794  0.00  0.00    +0.002 C 
ATOM    117  CD2 LEU A   5      35.528 104.834  14.787  0.00  0.00    +0.000 C 
ATOM    118  CD1 LEU A   5      34.004 106.775  14.416  0.00  0.00    +0.000 C 
ENDBRANCH 115 116
ENDBRANCH  66 115
ENDBRANCH  62  66
ENDBRANCH   1  64
BRANCH   1 119
ATOM    119  CB  SER A   6      28.385 102.258  15.162  0.00  0.00    +0.166 C 
BRANCH 119 120
ATOM    120  OG  SER A   6      27.689 103.498  15.227  0.00  0.00    -0.380 OA
ATOM    121  H   SER A   6      28.217 104.196  14.764  0.00  0.00    +0.211 HD
ENDBRANCH 119 120
ENDBRANCH   1 119
TORSDOF 49
REMARK  Name = ../refined-set-2016/4tmk/4tmk_pocket.pdb
REMARK  286 active torsions:
REMARK  status: ('A' for Active; 'I' for Inactive)
REMARK    1  A    between atoms: _1  and  _3
REMARK    2  A    between atoms: _3  and  _4
REMARK    3  A    between atoms: _3  and  _6
REMARK    4  A    between atoms: _6  and  _7
REMARK    5  A    between atoms: _10  and  _12
REMARK    6  A    between atoms: _12  and  _13
REMARK    7  A    between atoms: _12  and  _15
REMARK    8  A    between atoms: _15  and  _16
REMARK    9  A    between atoms: _16  and  _17
REMARK   10  A    between atoms: _20  and  _22
REMARK   11  A    between atoms: _22  and  _23
REMARK   12  A    between atoms: _25  and  _27
REMARK   13  A    between atoms: _27  and  _28
REMARK   14  A    between atoms: _27  and  _30
REMARK   15  A    between atoms: _30  and  _31
REMARK   16  A    between atoms: _34  and  _36
REMARK   17  A    between atoms: _36  and  _37
REMARK   18  A    between atoms: _36  and  _39
REMARK   19  A    between atoms: _39  and  _40
REMARK   20  A    between atoms: _40  and  _41
REMARK   21  A    between atoms: _44  and  _46
REMARK   22  A    between atoms: _46  and  _47
REMARK   23  A    between atoms: _49  and  _51
REMARK   24  A    between atoms: _51  and  _52
REMARK   25  A    between atoms: _55  and  _57
REMARK   26  A    between atoms: _57  and  _58
REMARK   27  A    between atoms: _60  and  _62
REMARK   28  A    between atoms: _62  and  _63
REMARK   29  A    between atoms: _62  and  _65
REMARK   30  A    between atoms: _65  and  _66
REMARK   31  A    between atoms: _66  and  _67
REMARK   32  A    between atoms: _67  and  _68
REMARK   33  A    between atoms: _68  and  _69
REMARK   34  A    between atoms: _73  and  _75
REMARK   35  A    between atoms: _75  and  _76
REMARK   36  A    between atoms: _75  and  _78
REMARK   37  A    between atoms: _78  and  _79
REMARK   38  A    between atoms: _82  and  _84
REMARK   39  A    between atoms: _84  and  _85
REMARK   40  A    between atoms: _84  and  _87
REMARK   41  A    between atoms: _87  and  _88
REMARK   42  A    between atoms: _91  and  _93
REMARK   43  A    between atoms: _93  and  _94
REMARK   44  A    between atoms: _97  and  _99
REMARK   45  A    between atoms: _99  and  _100
REMARK   46  A    between atoms: _99  and  _102
REMARK   47  A    between atoms: _102  and  _103
REMARK   48  A    between atoms: _103  and  _104
REMARK   49  A    between atoms: _104  and  _105
REMARK   50  A    between atoms: _114  and  _116
REMARK   51  A    between atoms: _116  and  _117
REMARK   52  A    between atoms: _116  and  _119
REMARK   53  A    between atoms: _119  and  _120
REMARK   54  A    between atoms: _125  and  _127
REMARK   55  A    between atoms: _127  and  _128
REMARK   56  A    between atoms: _127  and  _130
REMARK   57  A    between atoms: _130  and  _131
REMARK   58  A    between atoms: _131  and  _132
REMARK   59  A    between atoms: _132  and  _133
REMARK   60  A    between atoms: _142  and  _144
REMARK   61  A    between atoms: _144  and  _145
REMARK   62  A    between atoms: _144  and  _147
REMARK   63  A    between atoms: _147  and  _148
REMARK   64  A    between atoms: _148  and  _149
REMARK   65  A    between atoms: _153  and  _154
REMARK   66  A    between atoms: _159  and  _161
REMARK   67  A    between atoms: _161  and  _162
REMARK   68  A    between atoms: _164  and  _166
REMARK   69  A    between atoms: _166  and  _167
REMARK   70  A    between atoms: _166  and  _169
REMARK   71  A    between atoms: _169  and  _170
REMARK   72  A    between atoms: _170  and  _171
REMARK   73  A    between atoms: _171  and  _172
REMARK   74  A    between atoms: _181  and  _183
REMARK   75  A    between atoms: _183  and  _184
REMARK   76  A    between atoms: _183  and  _186
REMARK   77  A    between atoms: _186  and  _187
REMARK   78  A    between atoms: _190  and  _192
REMARK   79  A    between atoms: _192  and  _193
REMARK   80  A    between atoms: _192  and  _195
REMARK   81  A    between atoms: _195  and  _196
REMARK   82  A    between atoms: _199  and  _201
REMARK   83  A    between atoms: _201  and  _202
REMARK   84  A    between atoms: _201  and  _204
REMARK   85  A    between atoms: _204  and  _205
REMARK   86  A    between atoms: _205  and  _206
REMARK   87  A    between atoms: _209  and  _211
REMARK   88  A    between atoms: _211  and  _212
REMARK   89  A    between atoms: _211  and  _214
REMARK   90  A    between atoms: _217  and  _219
REMARK   91  A    between atoms: _219  and  _220
REMARK   92  A    between atoms: _219  and  _222
REMARK   93  A    between atoms: _222  and  _223
REMARK   94  A    between atoms: _223  and  _224
REMARK   95  A    between atoms: _226  and  _228
REMARK   96  A    between atoms: _228  and  _229
REMARK   97  A    between atoms: _228  and  _231
REMARK   98  A    between atoms: _231  and  _232
REMARK   99  A    between atoms: _238  and  _240
REMARK  100  A    between atoms: _240  and  _241
REMARK  101  A    between atoms: _240  and  _243
REMARK  102  A    between atoms: _243  and  _244
REMARK  103  A    between atoms: _249  and  _250
REMARK  104  A    between atoms: _252  and  _254
REMARK  105  A    between atoms: _254  and  _255
REMARK  106  A    between atoms: _258  and  _260
REMARK  107  A    between atoms: _260  and  _261
REMARK  108  A    between atoms: _260  and  _263
REMARK  109  A    between atoms: _263  and  _264
REMARK  110  A    between atoms: _264  and  _265
REMARK  111  A    between atoms: _265  and  _266
REMARK  112  A    between atoms: _275  and  _277
REMARK  113  A    between atoms: _277  and  _278
REMARK  114  A    between atoms: _277  and  _280
REMARK  115  A    between atoms: _280  and  _281
REMARK  116  A    between atoms: _284  and  _286
REMARK  117  A    between atoms: _286  and  _287
REMARK  118  A    between atoms: _286  and  _289
REMARK  119  A    between atoms: _289  and  _290
REMARK  120  A    between atoms: _290  and  _291
REMARK  121  A    between atoms: _291  and  _292
REMARK  122  A    between atoms: _301  and  _303
REMARK  123  A    between atoms: _303  and  _304
REMARK  124  A    between atoms: _303  and  _306
REMARK  125  A    between atoms: _306  and  _307
REMARK  126  A    between atoms: _312  and  _314
REMARK  127  A    between atoms: _314  and  _315
REMARK  128  A    between atoms: _314  and  _317
REMARK  129  A    between atoms: _317  and  _318
REMARK  130  A    between atoms: _321  and  _323
REMARK  131  A    between atoms: _323  and  _324
REMARK  132  A    between atoms: _323  and  _326
REMARK  133  A    between atoms: _326  and  _327
REMARK  134  A    between atoms: _330  and  _332
REMARK  135  A    between atoms: _332  and  _333
REMARK  136  A    between atoms: _332  and  _335
REMARK  137  A    between atoms: _335  and  _336
REMARK  138  A    between atoms: _338  and  _340
REMARK  139  A    between atoms: _340  and  _341
REMARK  140  A    between atoms: _340  and  _343
REMARK  141  A    between atoms: _343  and  _344
REMARK  142  A    between atoms: _347  and  _349
REMARK  143  A    between atoms: _349  and  _350
REMARK  144  A    between atoms: _349  and  _352
REMARK  145  A    between atoms: _352  and  _353
REMARK  146  A    between atoms: _353  and  _354
REMARK  147  A    between atoms: _359  and  _361
REMARK  148  A    between atoms: _361  and  _362
REMARK  149  A    between atoms: _365  and  _367
REMARK  150  A    between atoms: _367  and  _368
REMARK  151  A    between atoms: _367  and  _370
REMARK  152  A    between atoms: _370  and  _371
REMARK  153  A    between atoms: _376  and  _377
REMARK  154  A    between atoms: _379  and  _381
REMARK  155  A    between atoms: _381  and  _382
REMARK  156  A    between atoms: _381  and  _384
REMARK  157  A    between atoms: _384  and  _385
REMARK  158  A    between atoms: _385  and  _386
REMARK  159  A    between atoms: _391  and  _393
REMARK  160  A    between atoms: _393  and  _394
REMARK  161  A    between atoms: _396  and  _398
REMARK  162  A    between atoms: _398  and  _399
REMARK  163  A    between atoms: _401  and  _403
REMARK  164  A    between atoms: _403  and  _404
REMARK  165  A    between atoms: _403  and  _406
REMARK  166  A    between atoms: _406  and  _407
REMARK  167  A    between atoms: _407  and  _408
REMARK  168  A    between atoms: _408  and  _409
REMARK  169  A    between atoms: _418  and  _420
REMARK  170  A    between atoms: _420  and  _421
REMARK  171  A    between atoms: _420  and  _423
REMARK  172  A    between atoms: _423  and  _424
REMARK  173  A    between atoms: _427  and  _429
REMARK  174  A    between atoms: _429  and  _430
REMARK  175  A    between atoms: _429  and  _432
REMARK  176  A    between atoms: _435  and  _437
REMARK  177  A    between atoms: _437  and  _438
REMARK  178  A    between atoms: _437  and  _440
REMARK  179  A    between atoms: _443  and  _445
REMARK  180  A    between atoms: _445  and  _446
REMARK  181  A    between atoms: _448  and  _450
REMARK  182  A    between atoms: _450  and  _451
REMARK  183  A    between atoms: _450  and  _453
REMARK  184  A    between atoms: _453  and  _454
REMARK  185  A    between atoms: _454  and  _455
REMARK  186  A    between atoms: _455  and  _456
REMARK  187  A    between atoms: _456  and  _457
REMARK  188  A    between atoms: _461  and  _463
REMARK  189  A    between atoms: _463  and  _464
REMARK  190  A    between atoms: _463  and  _466
REMARK  191  A    between atoms: _466  and  _467
REMARK  192  A    between atoms: _467  and  _468
REMARK  193  A    between atoms: _468  and  _469
REMARK  194  A    between atoms: _478  and  _480
REMARK  195  A    between atoms: _480  and  _481
REMARK  196  A    between atoms: _484  and  _486
REMARK  197  A    between atoms: _486  and  _487
REMARK  198  A    between atoms: _486  and  _489
REMARK  199  A    between atoms: _489  and  _490
REMARK  200  A    between atoms: _490  and  _491
REMARK  201  A    between atoms: _491  and  _492
REMARK  202  A    between atoms: _501  and  _503
REMARK  203  A    between atoms: _503  and  _504
REMARK  204  A    between atoms: _507  and  _509
REMARK  205  A    between atoms: _509  and  _510
REMARK  206  A    between atoms: _509  and  _512
REMARK  207  A    between atoms: _512  and  _513
REMARK  208  A    between atoms: _513  and  _514
REMARK  209  A    between atoms: _514  and  _515
REMARK  210  A    between atoms: _524  and  _526
REMARK  211  A    between atoms: _526  and  _527
REMARK  212  A    between atoms: _529  and  _531
REMARK  213  A    between atoms: _531  and  _532
REMARK  214  A    between atoms: _531  and  _534
REMARK  215  A    between atoms: _534  and  _535
REMARK  216  A    between atoms: _535  and  _536
REMARK  217  A    between atoms: _539  and  _541
REMARK  218  A    between atoms: _541  and  _542
REMARK  219  A    between atoms: _541  and  _544
REMARK  220  A    between atoms: _544  and  _545
REMARK  221  A    between atoms: _548  and  _550
REMARK  222  A    between atoms: _550  and  _551
REMARK  223  A    between atoms: _550  and  _553
REMARK  224  A    between atoms: _553  and  _554
REMARK  225  A    between atoms: _557  and  _559
REMARK  226  A    between atoms: _559  and  _560
REMARK  227  A    between atoms: _559  and  _562
REMARK  228  A    between atoms: _562  and  _563
REMARK  229  A    between atoms: _563  and  _564
REMARK  230  A    between atoms: _564  and  _565
REMARK  231  A    between atoms: _574  and  _576
REMARK  232  A    between atoms: _576  and  _577
REMARK  233  A    between atoms: _576  and  _579
REMARK  234  A    between atoms: _579  and  _580
REMARK  235  A    between atoms: _583  and  _585
REMARK  236  A    between atoms: _585  and  _586
REMARK  237  A    between atoms: _585  and  _588
REMARK  238  A    between atoms: _588  and  _589
REMARK  239  A    between atoms: _589  and  _590
REMARK  240  A    between atoms: _593  and  _595
REMARK  241  A    between atoms: _595  and  _596
REMARK  242  A    between atoms: _595  and  _598
REMARK  243  A    between atoms: _598  and  _599
REMARK  244  A    between atoms: _599  and  _600
REMARK  245  A    between atoms: _605  and  _607
REMARK  246  A    between atoms: _607  and  _608
REMARK  247  A    between atoms: _607  and  _610
REMARK  248  A    between atoms: _610  and  _611
REMARK  249  A    between atoms: _611  and  _612
REMARK  250  A    between atoms: _615  and  _617
REMARK  251  A    between atoms: _617  and  _618
REMARK  252  A    between atoms: _617  and  _620
REMARK  253  A    between atoms: _620  and  _621
REMARK  254  A    between atoms: _627  and  _629
REMARK  255  A    between atoms: _629  and  _630
REMARK  256  A    between atoms: _629  and  _632
REMARK  257  A    between atoms: _632  and  _633
REMARK  258  A    between atoms: _639  and  _641
REMARK  259  A    between atoms: _641  and  _642
REMARK  260  A    between atoms: _641  and  _644
REMARK  261  A    between atoms: _644  and  _645
REMARK  262  A    between atoms: _648  and  _650
REMARK  263  A    between atoms: _650  and  _651
REMARK  264  A    between atoms: _650  and  _653
REMARK  265  A    between atoms: _653  and  _654
REMARK  266  A    between atoms: _659  and  _660
REMARK  267  A    between atoms: _662  and  _664
REMARK  268  A    between atoms: _664  and  _665
REMARK  269  A    between atoms: _668  and  _670
REMARK  270  A    between atoms: _670  and  _671
REMARK  271  A    between atoms: _670  and  _673
REMARK  272  A    between atoms: _673  and  _674
REMARK  273  A    between atoms: _674  and  _675
REMARK  274  A    between atoms: _681  and  _682
REMARK  275  A    between atoms: _687  and  _689
REMARK  276  A    between atoms: _689  and  _690
REMARK  277  A    between atoms: _689  and  _692
REMARK  278  A    between atoms: _692  and  _693
REMARK  279  A    between atoms: _696  and  _698
REMARK  280  A    between atoms: _698  and  _699
REMARK  281  A    between atoms: _698  and  _701
REMARK  282  A    between atoms: _701  and  _702
REMARK  283  A    between atoms: _702  and  _703
REMARK  284  A    between atoms: _706  and  _708
REMARK  285  A    between atoms: _708  and  _709
REMARK  286  A    between atoms: _708  and  _711
REMARK                            x       y       z     vdW  Elec       q    Type
REMARK                         _______ _______ _______ _____ _____    ______ ____
ROOT
ATOM      1  CB  ARG A   2      30.174  95.177  24.585  0.00  0.00    +0.031 C 
ENDROOT
BRANCH   1   2
ATOM      2  CA  ARG A   2      30.611  96.049  25.759  0.00  0.00    +0.137 C 
BRANCH   2   5
ATOM      3  C   GLY A   1      30.615  98.434  26.285  0.00  0.00    +0.240 C 
ATOM      4  O   GLY A   1      30.518  98.194  27.481  0.00  0.00    -0.274 OA
ATOM      5  N   ARG A   2      30.679  97.470  25.369  0.00  0.00    -0.298 N 
ATOM      6  H   ARG A   2      30.778  97.722  24.365  0.00  0.00    +0.150 HD
BRANCH   3   7
ATOM      7  CA  GLY A   1      30.660  99.874  25.811  0.00  0.00    +0.169 C 
BRANCH   7   8
ATOM      8  N   GLY A   1      31.738 100.167  24.894  0.00  0.00    -0.236 NA
ATOM      9  H   GLY A   1      31.537 100.379  23.896  0.00  0.00    +0.142 HD
ENDBRANCH   7   8
ENDBRANCH   3   7
ENDBRANCH   2   5
BRANCH   2  10
ATOM     10  C   ARG A   2      31.938  95.511  26.279  0.00  0.00    +0.227 C 
ATOM     11  O   ARG A   2      31.961  94.588  27.094  0.00  0.00    -0.286 OA
ENDBRANCH   2  10
ENDBRANCH   1   2
BRANCH   1  12
ATOM     12  CG  ARG A   2      28.772  95.434  24.104  0.00  0.00    +0.045 C 
BRANCH  12  13
ATOM     13  CD  ARG A   2      27.731  95.167  25.158  0.00  0.00    +0.174 C 
BRANCH  13  14
ATOM     14  NE  ARG A   2      26.411  95.333  24.552  0.00  0.00    -0.265 N 
ATOM     15  CZ  ARG A   2      25.312  95.645  25.224  0.00  0.00    +0.342 C 
ATOM     16  NH2 ARG A   2      25.380  95.823  26.526  0.00  0.00    -0.292 N 
ATOM     17 HH21 ARG A   2      24.524  96.068  27.063  0.00  0.00    +0.255 HD
ATOM     18 HH22 ARG A   2      26.290  95.719  27.018  0.00  0.00    +0.255 HD
ATOM     19  NH1 ARG A   2      24.150  95.780  24.595  0.00  0.00    -0.292 N 
ATOM     20 HH11 ARG A   2      23.294  96.025  25.132  0.00  0.00    +0.255 HD
ATOM     21 HH12 ARG A   2      24.097  95.641  23.566  0.00  0.00    +0.255 HD
ATOM     22  HE  ARG A   2      26.329  95.197  23.524  0.00  0.00    +0.259 HD
ENDBRANCH  13  14
ENDBRANCH  12  13
ENDBRANCH   1  12
TORSDOF 8
REMARK  Name = ../refined-set-2016/4tmk/4tmk_pocket.pdb
REMARK  286 active torsions:
REMARK  status: ('A' for Active; 'I' for Inactive)
REMARK    1  A    between atoms: _1  and  _3
REMARK    2  A    between atoms: _3  and  _4
REMARK    3  A    between atoms: _3  and  _6
REMARK    4  A    between atoms: _6  and  _7
REMARK    5  A    between atoms: _10  and  _12
REMARK    6  A    between atoms: _12  and  _13
REMARK    7  A    between atoms: _12  and  _15
REMARK    8  A    between atoms: _15  and  _16
REMARK    9  A    between atoms: _16  and  _17
REMARK   10  A    between atoms: _20  and  _22
REMARK   11  A    between atoms: _22  and  _23
REMARK   12  A    between atoms: _25  and  _27
REMARK   13  A    between atoms: _27  and  _28
REMARK   14  A    between atoms: _27  and  _30
REMARK   15  A    between atoms: _30  and  _31
REMARK   16  A    between atoms: _34  and  _36
REMARK   17  A    between atoms: _36  and  _37
REMARK   18  A    between atoms: _36  and  _39
REMARK   19  A    between atoms: _39  and  _40
REMARK   20  A    between atoms: _40  and  _41
REMARK   21  A    between atoms: _44  and  _46
REMARK   22  A    between atoms: _46  and  _47
REMARK   23  A    between atoms: _49  and  _51
REMARK   24  A    between atoms: _51  and  _52
REMARK   25  A    between atoms: _55  and  _57
REMARK   26  A    between atoms: _57  and  _58
REMARK   27  A    between atoms: _60  and  _62
REMARK   28  A    between atoms: _62  and  _63
REMARK   29  A    between atoms: _62  and  _65
REMARK   30  A    between atoms: _65  and  _66
REMARK   31  A    between atoms: _66  and  _67
REMARK   32  A    between atoms: _67  and  _68
REMARK   33  A    between atoms: _68  and  _69
REMARK   34  A    between atoms: _73  and  _75
REMARK   35  A    between atoms: _75  and  _76
REMARK   36  A    between atoms: _75  and  _78
REMARK   37  A    between atoms: _78  and  _79
REMARK   38  A    between atoms: _82  and  _84
REMARK   39  A    between atoms: _84  and  _85
REMARK   40  A    between atoms: _84  and  _87
REMARK   41  A    between atoms: _87  and  _88
REMARK   42  A    between atoms: _91  and  _93
REMARK   43  A    between atoms: _93  and  _94
REMARK   44  A    between atoms: _97  and  _99
REMARK   45  A    between atoms: _99  and  _100
REMARK   46  A    between atoms: _99  and  _102
REMARK   47  A    between atoms: _102  and  _103
REMARK   48  A    between atoms: _103  and  _104
REMARK   49  A    between atoms: _104  and  _105
REMARK   50  A    between atoms: _114  and  _116
REMARK   51  A    between atoms: _116  and  _117
REMARK   52  A    between atoms: _116  and  _119
REMARK   53  A    between atoms: _119  and  _120
REMARK   54  A    between atoms: _125  and  _127
REMARK   55  A    between atoms: _127  and  _128
REMARK   56  A    between atoms: _127  and  _130
REMARK   57  A    between atoms: _130  and  _131
REMARK   58  A    between atoms: _131  and  _132
REMARK   59  A    between atoms: _132  and  _133
REMARK   60  A    between atoms: _142  and  _144
REMARK   61  A    between atoms: _144  and  _145
REMARK   62  A    between atoms: _144  and  _147
REMARK   63  A    between atoms: _147  and  _148
REMARK   64  A    between atoms: _148  and  _149
REMARK   65  A    between atoms: _153  and  _154
REMARK   66  A    between atoms: _159  and  _161
REMARK   67  A    between atoms: _161  and  _162
REMARK   68  A    between atoms: _164  and  _166
REMARK   69  A    between atoms: _166  and  _167
REMARK   70  A    between atoms: _166  and  _169
REMARK   71  A    between atoms: _169  and  _170
REMARK   72  A    between atoms: _170  and  _171
REMARK   73  A    between atoms: _171  and  _172
REMARK   74  A    between atoms: _181  and  _183
REMARK   75  A    between atoms: _183  and  _184
REMARK   76  A    between atoms: _183  and  _186
REMARK   77  A    between atoms: _186  and  _187
REMARK   78  A    between atoms: _190  and  _192
REMARK   79  A    between atoms: _192  and  _193
REMARK   80  A    between atoms: _192  and  _195
REMARK   81  A    between atoms: _195  and  _196
REMARK   82  A    between atoms: _199  and  _201
REMARK   83  A    between atoms: _201  and  _202
REMARK   84  A    between atoms: _201  and  _204
REMARK   85  A    between atoms: _204  and  _205
REMARK   86  A    between atoms: _205  and  _206
REMARK   87  A    between atoms: _209  and  _211
REMARK   88  A    between atoms: _211  and  _212
REMARK   89  A    between atoms: _211  and  _214
REMARK   90  A    between atoms: _217  and  _219
REMARK   91  A    between atoms: _219  and  _220
REMARK   92  A    between atoms: _219  and  _222
REMARK   93  A    between atoms: _222  and  _223
REMARK   94  A    between atoms: _223  and  _224
REMARK   95  A    between atoms: _226  and  _228
REMARK   96  A    between atoms: _228  and  _229
REMARK   97  A    between atoms: _228  and  _231
REMARK   98  A    between atoms: _231  and  _232
REMARK   99  A    between atoms: _238  and  _240
REMARK  100  A    between atoms: _240  and  _241
REMARK  101  A    between atoms: _240  and  _243
REMARK  102  A    between atoms: _243  and  _244
REMARK  103  A    between atoms: _249  and  _250
REMARK  104  A    between atoms: _252  and  _254
REMARK  105  A    between atoms: _254  and  _255
REMARK  106  A    between atoms: _258  and  _260
REMARK  107  A    between atoms: _260  and  _261
REMARK  108  A    between atoms: _260  and  _263
REMARK  109  A    between atoms: _263  and  _264
REMARK  110  A    between atoms: _264  and  _265
REMARK  111  A    between atoms: _265  and  _266
REMARK  112  A    between atoms: _275  and  _277
REMARK  113  A    between atoms: _277  and  _278
REMARK  114  A    between atoms: _277  and  _280
REMARK  115  A    between atoms: _280  and  _281
REMARK  116  A    between atoms: _284  and  _286
REMARK  117  A    between atoms: _286  and  _287
REMARK  118  A    between atoms: _286  and  _289
REMARK  119  A    between atoms: _289  and  _290
REMARK  120  A    between atoms: _290  and  _291
REMARK  121  A    between atoms: _291  and  _292
REMARK  122  A    between atoms: _301  and  _303
REMARK  123  A    between atoms: _303  and  _304
REMARK  124  A    between atoms: _303  and  _306
REMARK  125  A    between atoms: _306  and  _307
REMARK  126  A    between atoms: _312  and  _314
REMARK  127  A    between atoms: _314  and  _315
REMARK  128  A    between atoms: _314  and  _317
REMARK  129  A    between atoms: _317  and  _318
REMARK  130  A    between atoms: _321  and  _323
REMARK  131  A    between atoms: _323  and  _324
REMARK  132  A    between atoms: _323  and  _326
REMARK  133  A    between atoms: _326  and  _327
REMARK  134  A    between atoms: _330  and  _332
REMARK  135  A    between atoms: _332  and  _333
REMARK  136  A    between atoms: _332  and  _335
REMARK  137  A    between atoms: _335  and  _336
REMARK  138  A    between atoms: _338  and  _340
REMARK  139  A    between atoms: _340  and  _341
REMARK  140  A    between atoms: _340  and  _343
REMARK  141  A    between atoms: _343  and  _344
REMARK  142  A    between atoms: _347  and  _349
REMARK  143  A    between atoms: _349  and  _350
REMARK  144  A    between atoms: _349  and  _352
REMARK  145  A    between atoms: _352  and  _353
REMARK  146  A    between atoms: _353  and  _354
REMARK  147  A    between atoms: _359  and  _361
REMARK  148  A    between atoms: _361  and  _362
REMARK  149  A    between atoms: _365  and  _367
REMARK  150  A    between atoms: _367  and  _368
REMARK  151  A    between atoms: _367  and  _370
REMARK  152  A    between atoms: _370  and  _371
REMARK  153  A    between atoms: _376  and  _377
REMARK  154  A    between atoms: _379  and  _381
REMARK  155  A    between atoms: _381  and  _382
REMARK  156  A    between atoms: _381  and  _384
REMARK  157  A    between atoms: _384  and  _385
REMARK  158  A    between atoms: _385  and  _386
REMARK  159  A    between atoms: _391  and  _393
REMARK  160  A    between atoms: _393  and  _394
REMARK  161  A    between atoms: _396  and  _398
REMARK  162  A    between atoms: _398  and  _399
REMARK  163  A    between atoms: _401  and  _403
REMARK  164  A    between atoms: _403  and  _404
REMARK  165  A    between atoms: _403  and  _406
REMARK  166  A    between atoms: _406  and  _407
REMARK  167  A    between atoms: _407  and  _408
REMARK  168  A    between atoms: _408  and  _409
REMARK  169  A    between atoms: _418  and  _420
REMARK  170  A    between atoms: _420  and  _421
REMARK  171  A    between atoms: _420  and  _423
REMARK  172  A    between atoms: _423  and  _424
REMARK  173  A    between atoms: _427  and  _429
REMARK  174  A    between atoms: _429  and  _430
REMARK  175  A    between atoms: _429  and  _432
REMARK  176  A    between atoms: _435  and  _437
REMARK  177  A    between atoms: _437  and  _438
REMARK  178  A    between atoms: _437  and  _440
REMARK  179  A    between atoms: _443  and  _445
REMARK  180  A    between atoms: _445  and  _446
REMARK  181  A    between atoms: _448  and  _450
REMARK  182  A    between atoms: _450  and  _451
REMARK  183  A    between atoms: _450  and  _453
REMARK  184  A    between atoms: _453  and  _454
REMARK  185  A    between atoms: _454  and  _455
REMARK  186  A    between atoms: _455  and  _456
REMARK  187  A    between atoms: _456  and  _457
REMARK  188  A    between atoms: _461  and  _463
REMARK  189  A    between atoms: _463  and  _464
REMARK  190  A    between atoms: _463  and  _466
REMARK  191  A    between atoms: _466  and  _467
REMARK  192  A    between atoms: _467  and  _468
REMARK  193  A    between atoms: _468  and  _469
REMARK  194  A    between atoms: _478  and  _480
REMARK  195  A    between atoms: _480  and  _481
REMARK  196  A    between atoms: _484  and  _486
REMARK  197  A    between atoms: _486  and  _487
REMARK  198  A    between atoms: _486  and  _489
REMARK  199  A    between atoms: _489  and  _490
REMARK  200  A    between atoms: _490  and  _491
REMARK  201  A    between atoms: _491  and  _492
REMARK  202  A    between atoms: _501  and  _503
REMARK  203  A    between atoms: _503  and  _504
REMARK  204  A    between atoms: _507  and  _509
REMARK  205  A    between atoms: _509  and  _510
REMARK  206  A    between atoms: _509  and  _512
REMARK  207  A    between atoms: _512  and  _513
REMARK  208  A    between atoms: _513  and  _514
REMARK  209  A    between atoms: _514  and  _515
REMARK  210  A    between atoms: _524  and  _526
REMARK  211  A    between atoms: _526  and  _527
REMARK  212  A    between atoms: _529  and  _531
REMARK  213  A    between atoms: _531  and  _532
REMARK  214  A    between atoms: _531  and  _534
REMARK  215  A    between atoms: _534  and  _535
REMARK  216  A    between atoms: _535  and  _536
REMARK  217  A    between atoms: _539  and  _541
REMARK  218  A    between atoms: _541  and  _542
REMARK  219  A    between atoms: _541  and  _544
REMARK  220  A    between atoms: _544  and  _545
REMARK  221  A    between atoms: _548  and  _550
REMARK  222  A    between atoms: _550  and  _551
REMARK  223  A    between atoms: _550  and  _553
REMARK  224  A    between atoms: _553  and  _554
REMARK  225  A    between atoms: _557  and  _559
REMARK  226  A    between atoms: _559  and  _560
REMARK  227  A    between atoms: _559  and  _562
REMARK  228  A    between atoms: _562  and  _563
REMARK  229  A    between atoms: _563  and  _564
REMARK  230  A    between atoms: _564  and  _565
REMARK  231  A    between atoms: _574  and  _576
REMARK  232  A    between atoms: _576  and  _577
REMARK  233  A    between atoms: _576  and  _579
REMARK  234  A    between atoms: _579  and  _580
REMARK  235  A    between atoms: _583  and  _585
REMARK  236  A    between atoms: _585  and  _586
REMARK  237  A    between atoms: _585  and  _588
REMARK  238  A    between atoms: _588  and  _589
REMARK  239  A    between atoms: _589  and  _590
REMARK  240  A    between atoms: _593  and  _595
REMARK  241  A    between atoms: _595  and  _596
REMARK  242  A    between atoms: _595  and  _598
REMARK  243  A    between atoms: _598  and  _599
REMARK  244  A    between atoms: _599  and  _600
REMARK  245  A    between atoms: _605  and  _607
REMARK  246  A    between atoms: _607  and  _608
REMARK  247  A    between atoms: _607  and  _610
REMARK  248  A    between atoms: _610  and  _611
REMARK  249  A    between atoms: _611  and  _612
REMARK  250  A    between atoms: _615  and  _617
REMARK  251  A    between atoms: _617  and  _618
REMARK  252  A    between atoms: _617  and  _620
REMARK  253  A    between atoms: _620  and  _621
REMARK  254  A    between atoms: _627  and  _629
REMARK  255  A    between atoms: _629  and  _630
REMARK  256  A    between atoms: _629  and  _632
REMARK  257  A    between atoms: _632  and  _633
REMARK  258  A    between atoms: _639  and  _641
REMARK  259  A    between atoms: _641  and  _642
REMARK  260  A    between atoms: _641  and  _644
REMARK  261  A    between atoms: _644  and  _645
REMARK  262  A    between atoms: _648  and  _650
REMARK  263  A    between atoms: _650  and  _651
REMARK  264  A    between atoms: _650  and  _653
REMARK  265  A    between atoms: _653  and  _654
REMARK  266  A    between atoms: _659  and  _660
REMARK  267  A    between atoms: _662  and  _664
REMARK  268  A    between atoms: _664  and  _665
REMARK  269  A    between atoms: _668  and  _670
REMARK  270  A    between atoms: _670  and  _671
REMARK  271  A    between atoms: _670  and  _673
REMARK  272  A    between atoms: _673  and  _674
REMARK  273  A    between atoms: _674  and  _675
REMARK  274  A    between atoms: _681  and  _682
REMARK  275  A    between atoms: _687  and  _689
REMARK  276  A    between atoms: _689  and  _690
REMARK  277  A    between atoms: _689  and  _692
REMARK  278  A    between atoms: _692  and  _693
REMARK  279  A    between atoms: _696  and  _698
REMARK  280  A    between atoms: _698  and  _699
REMARK  281  A    between atoms: _698  and  _701
REMARK  282  A    between atoms: _701  and  _702
REMARK  283  A    between atoms: _702  and  _703
REMARK  284  A    between atoms: _706  and  _708
REMARK  285  A    between atoms: _708  and  _709
REMARK  286  A    between atoms: _708  and  _711
REMARK                            x       y       z     vdW  Elec       q    Type
REMARK                         _______ _______ _______ _____ _____    ______ ____
ROOT
ATOM      1  CA  LEU A   1      29.512 114.196  16.681  0.00  0.00    +0.133 C 
ENDROOT
BRANCH   1   2
ATOM      2  N   LEU A   1      30.132 113.125  15.912  0.00  0.00    -0.239 NA
ATOM      3  H   LEU A   1      29.546 112.340  15.562  0.00  0.00    +0.142 HD
ENDBRANCH   1   2
BRANCH   1   4
ATOM      4  C   LEU A   1      29.565 113.890  18.165  0.00  0.00    +0.224 C 
ATOM      5  O   LEU A   1      28.797 113.049  18.658  0.00  0.00    -0.287 OA
ENDBRANCH   1   4
BRANCH   1   6
ATOM      6  CB  LEU A   1      28.056 114.405  16.244  0.00  0.00    +0.025 C 
BRANCH   6   7
ATOM      7  CG  LEU A   1      27.766 114.429  14.740  0.00  0.00    +0.002 C 
ATOM      8  CD2 LEU A   1      26.273 114.705  14.528  0.00  0.00    +0.000 C 
ATOM      9  CD1 LEU A   1      28.633 115.459  14.054  0.00  0.00    +0.000 C 
ENDBRANCH   6   7
ENDBRANCH   1   6
TORSDOF 4
REMARK  Name = ../refined-set-2016/4tmk/4tmk_pocket.pdb
REMARK  286 active torsions:
REMARK  status: ('A' for Active; 'I' for Inactive)
REMARK    1  A    between atoms: _1  and  _3
REMARK    2  A    between atoms: _3  and  _4
REMARK    3  A    between atoms: _3  and  _6
REMARK    4  A    between atoms: _6  and  _7
REMARK    5  A    between atoms: _10  and  _12
REMARK    6  A    between atoms: _12  and  _13
REMARK    7  A    between atoms: _12  and  _15
REMARK    8  A    between atoms: _15  and  _16
REMARK    9  A    between atoms: _16  and  _17
REMARK   10  A    between atoms: _20  and  _22
REMARK   11  A    between atoms: _22  and  _23
REMARK   12  A    between atoms: _25  and  _27
REMARK   13  A    between atoms: _27  and  _28
REMARK   14  A    between atoms: _27  and  _30
REMARK   15  A    between atoms: _30  and  _31
REMARK   16  A    between atoms: _34  and  _36
REMARK   17  A    between atoms: _36  and  _37
REMARK   18  A    between atoms: _36  and  _39
REMARK   19  A    between atoms: _39  and  _40
REMARK   20  A    between atoms: _40  and  _41
REMARK   21  A    between atoms: _44  and  _46
REMARK   22  A    between atoms: _46  and  _47
REMARK   23  A    between atoms: _49  and  _51
REMARK   24  A    between atoms: _51  and  _52
REMARK   25  A    between atoms: _55  and  _57
REMARK   26  A    between atoms: _57  and  _58
REMARK   27  A    between atoms: _60  and  _62
REMARK   28  A    between atoms: _62  and  _63
REMARK   29  A    between atoms: _62  and  _65
REMARK   30  A    between atoms: _65  and  _66
REMARK   31  A    between atoms: _66  and  _67
REMARK   32  A    between atoms: _67  and  _68
REMARK   33  A    between atoms: _68  and  _69
REMARK   34  A    between atoms: _73  and  _75
REMARK   35  A    between atoms: _75  and  _76
REMARK   36  A    between atoms: _75  and  _78
REMARK   37  A    between atoms: _78  and  _79
REMARK   38  A    between atoms: _82  and  _84
REMARK   39  A    between atoms: _84  and  _85
REMARK   40  A    between atoms: _84  and  _87
REMARK   41  A    between atoms: _87  and  _88
REMARK   42  A    between atoms: _91  and  _93
REMARK   43  A    between atoms: _93  and  _94
REMARK   44  A    between atoms: _97  and  _99
REMARK   45  A    between atoms: _99  and  _100
REMARK   46  A    between atoms: _99  and  _102
REMARK   47  A    between atoms: _102  and  _103
REMARK   48  A    between atoms: _103  and  _104
REMARK   49  A    between atoms: _104  and  _105
REMARK   50  A    between atoms: _114  and  _116
REMARK   51  A    between atoms: _116  and  _117
REMARK   52  A    between atoms: _116  and  _119
REMARK   53  A    between atoms: _119  and  _120
REMARK   54  A    between atoms: _125  and  _127
REMARK   55  A    between atoms: _127  and  _128
REMARK   56  A    between atoms: _127  and  _130
REMARK   57  A    between atoms: _130  and  _131
REMARK   58  A    between atoms: _131  and  _132
REMARK   59  A    between atoms: _132  and  _133
REMARK   60  A    between atoms: _142  and  _144
REMARK   61  A    between atoms: _144  and  _145
REMARK   62  A    between atoms: _144  and  _147
REMARK   63  A    between atoms: _147  and  _148
REMARK   64  A    between atoms: _148  and  _149
REMARK   65  A    between atoms: _153  and  _154
REMARK   66  A    between atoms: _159  and  _161
REMARK   67  A    between atoms: _161  and  _162
REMARK   68  A    between atoms: _164  and  _166
REMARK   69  A    between atoms: _166  and  _167
REMARK   70  A    between atoms: _166  and  _169
REMARK   71  A    between atoms: _169  and  _170
REMARK   72  A    between atoms: _170  and  _171
REMARK   73  A    between atoms: _171  and  _172
REMARK   74  A    between atoms: _181  and  _183
REMARK   75  A    between atoms: _183  and  _184
REMARK   76  A    between atoms: _183  and  _186
REMARK   77  A    between atoms: _186  and  _187
REMARK   78  A    between atoms: _190  and  _192
REMARK   79  A    between atoms: _192  and  _193
REMARK   80  A    between atoms: _192  and  _195
REMARK   81  A    between atoms: _195  and  _196
REMARK   82  A    between atoms: _199  and  _201
REMARK   83  A    between atoms: _201  and  _202
REMARK   84  A    between atoms: _201  and  _204
REMARK   85  A    between atoms: _204  and  _205
REMARK   86  A    between atoms: _205  and  _206
REMARK   87  A    between atoms: _209  and  _211
REMARK   88  A    between atoms: _211  and  _212
REMARK   89  A    between atoms: _211  and  _214
REMARK   90  A    between atoms: _217  and  _219
REMARK   91  A    between atoms: _219  and  _220
REMARK   92  A    between atoms: _219  and  _222
REMARK   93  A    between atoms: _222  and  _223
REMARK   94  A    between atoms: _223  and  _224
REMARK   95  A    between atoms: _226  and  _228
REMARK   96  A    between atoms: _228  and  _229
REMARK   97  A    between atoms: _228  and  _231
REMARK   98  A    between atoms: _231  and  _232
REMARK   99  A    between atoms: _238  and  _240
REMARK  100  A    between atoms: _240  and  _241
REMARK  101  A    between atoms: _240  and  _243
REMARK  102  A    between atoms: _243  and  _244
REMARK  103  A    between atoms: _249  and  _250
REMARK  104  A    between atoms: _252  and  _254
REMARK  105  A    between atoms: _254  and  _255
REMARK  106  A    between atoms: _258  and  _260
REMARK  107  A    between atoms: _260  and  _261
REMARK  108  A    between atoms: _260  and  _263
REMARK  109  A    between atoms: _263  and  _264
REMARK  110  A    between atoms: _264  and  _265
REMARK  111  A    between atoms: _265  and  _266
REMARK  112  A    between atoms: _275  and  _277
REMARK  113  A    between atoms: _277  and  _278
REMARK  114  A    between atoms: _277  and  _280
REMARK  115  A    between atoms: _280  and  _281
REMARK  116  A    between atoms: _284  and  _286
REMARK  117  A    between atoms: _286  and  _287
REMARK  118  A    between atoms: _286  and  _289
REMARK  119  A    between atoms: _289  and  _290
REMARK  120  A    between atoms: _290  and  _291
REMARK  121  A    between atoms: _291  and  _292
REMARK  122  A    between atoms: _301  and  _303
REMARK  123  A    between atoms: _303  and  _304
REMARK  124  A    between atoms: _303  and  _306
REMARK  125  A    between atoms: _306  and  _307
REMARK  126  A    between atoms: _312  and  _314
REMARK  127  A    between atoms: _314  and  _315
REMARK  128  A    between atoms: _314  and  _317
REMARK  129  A    between atoms: _317  and  _318
REMARK  130  A    between atoms: _321  and  _323
REMARK  131  A    between atoms: _323  and  _324
REMARK  132  A    between atoms: _323  and  _326
REMARK  133  A    between atoms: _326  and  _327
REMARK  134  A    between atoms: _330  and  _332
REMARK  135  A    between atoms: _332  and  _333
REMARK  136  A    between atoms: _332  and  _335
REMARK  137  A    between atoms: _335  and  _336
REMARK  138  A    between atoms: _338  and  _340
REMARK  139  A    between atoms: _340  and  _341
REMARK  140  A    between atoms: _340  and  _343
REMARK  141  A    between atoms: _343  and  _344
REMARK  142  A    between atoms: _347  and  _349
REMARK  143  A    between atoms: _349  and  _350
REMARK  144  A    between atoms: _349  and  _352
REMARK  145  A    between atoms: _352  and  _353
REMARK  146  A    between atoms: _353  and  _354
REMARK  147  A    between atoms: _359  and  _361
REMARK  148  A    between atoms: _361  and  _362
REMARK  149  A    between atoms: _365  and  _367
REMARK  150  A    between atoms: _367  and  _368
REMARK  151  A    between atoms: _367  and  _370
REMARK  152  A    between atoms: _370  and  _371
REMARK  153  A    between atoms: _376  and  _377
REMARK  154  A    between atoms: _379  and  _381
REMARK  155  A    between atoms: _381  and  _382
REMARK  156  A    between atoms: _381  and  _384
REMARK  157  A    between atoms: _384  and  _385
REMARK  158  A    between atoms: _385  and  _386
REMARK  159  A    between atoms: _391  and  _393
REMARK  160  A    between atoms: _393  and  _394
REMARK  161  A    between atoms: _396  and  _398
REMARK  162  A    between atoms: _398  and  _399
REMARK  163  A    between atoms: _401  and  _403
REMARK  164  A    between atoms: _403  and  _404
REMARK  165  A    between atoms: _403  and  _406
REMARK  166  A    between atoms: _406  and  _407
REMARK  167  A    between atoms: _407  and  _408
REMARK  168  A    between atoms: _408  and  _409
REMARK  169  A    between atoms: _418  and  _420
REMARK  170  A    between atoms: _420  and  _421
REMARK  171  A    between atoms: _420  and  _423
REMARK  172  A    between atoms: _423  and  _424
REMARK  173  A    between atoms: _427  and  _429
REMARK  174  A    between atoms: _429  and  _430
REMARK  175  A    between atoms: _429  and  _432
REMARK  176  A    between atoms: _435  and  _437
REMARK  177  A    between atoms: _437  and  _438
REMARK  178  A    between atoms: _437  and  _440
REMARK  179  A    between atoms: _443  and  _445
REMARK  180  A    between atoms: _445  and  _446
REMARK  181  A    between atoms: _448  and  _450
REMARK  182  A    between atoms: _450  and  _451
REMARK  183  A    between atoms: _450  and  _453
REMARK  184  A    between atoms: _453  and  _454
REMARK  185  A    between atoms: _454  and  _455
REMARK  186  A    between atoms: _455  and  _456
REMARK  187  A    between atoms: _456  and  _457
REMARK  188  A    between atoms: _461  and  _463
REMARK  189  A    between atoms: _463  and  _464
REMARK  190  A    between atoms: _463  and  _466
REMARK  191  A    between atoms: _466  and  _467
REMARK  192  A    between atoms: _467  and  _468
REMARK  193  A    between atoms: _468  and  _469
REMARK  194  A    between atoms: _478  and  _480
REMARK  195  A    between atoms: _480  and  _481
REMARK  196  A    between atoms: _484  and  _486
REMARK  197  A    between atoms: _486  and  _487
REMARK  198  A    between atoms: _486  and  _489
REMARK  199  A    between atoms: _489  and  _490
REMARK  200  A    between atoms: _490  and  _491
REMARK  201  A    between atoms: _491  and  _492
REMARK  202  A    between atoms: _501  and  _503
REMARK  203  A    between atoms: _503  and  _504
REMARK  204  A    between atoms: _507  and  _509
REMARK  205  A    between atoms: _509  and  _510
REMARK  206  A    between atoms: _509  and  _512
REMARK  207  A    between atoms: _512  and  _513
REMARK  208  A    between atoms: _513  and  _514
REMARK  209  A    between atoms: _514  and  _515
REMARK  210  A    between atoms: _524  and  _526
REMARK  211  A    between atoms: _526  and  _527
REMARK  212  A    between atoms: _529  and  _531
REMARK  213  A    between atoms: _531  and  _532
REMARK  214  A    between atoms: _531  and  _534
REMARK  215  A    between atoms: _534  and  _535
REMARK  216  A    between atoms: _535  and  _536
REMARK  217  A    between atoms: _539  and  _541
REMARK  218  A    between atoms: _541  and  _542
REMARK  219  A    between atoms: _541  and  _544
REMARK  220  A    between atoms: _544  and  _545
REMARK  221  A    between atoms: _548  and  _550
REMARK  222  A    between atoms: _550  and  _551
REMARK  223  A    between atoms: _550  and  _553
REMARK  224  A    between atoms: _553  and  _554
REMARK  225  A    between atoms: _557  and  _559
REMARK  226  A    between atoms: _559  and  _560
REMARK  227  A    between atoms: _559  and  _562
REMARK  228  A    between atoms: _562  and  _563
REMARK  229  A    between atoms: _563  and  _564
REMARK  230  A    between atoms: _564  and  _565
REMARK  231  A    between atoms: _574  and  _576
REMARK  232  A    between atoms: _576  and  _577
REMARK  233  A    between atoms: _576  and  _579
REMARK  234  A    between atoms: _579  and  _580
REMARK  235  A    between atoms: _583  and  _585
REMARK  236  A    between atoms: _585  and  _586
REMARK  237  A    between atoms: _585  and  _588
REMARK  238  A    between atoms: _588  and  _589
REMARK  239  A    between atoms: _589  and  _590
REMARK  240  A    between atoms: _593  and  _595
REMARK  241  A    between atoms: _595  and  _596
REMARK  242  A    between atoms: _595  and  _598
REMARK  243  A    between atoms: _598  and  _599
REMARK  244  A    between atoms: _599  and  _600
REMARK  245  A    between atoms: _605  and  _607
REMARK  246  A    between atoms: _607  and  _608
REMARK  247  A    between atoms: _607  and  _610
REMARK  248  A    between atoms: _610  and  _611
REMARK  249  A    between atoms: _611  and  _612
REMARK  250  A    between atoms: _615  and  _617
REMARK  251  A    between atoms: _617  and  _618
REMARK  252  A    between atoms: _617  and  _620
REMARK  253  A    between atoms: _620  and  _621
REMARK  254  A    between atoms: _627  and  _629
REMARK  255  A    between atoms: _629  and  _630
REMARK  256  A    between atoms: _629  and  _632
REMARK  257  A    between atoms: _632  and  _633
REMARK  258  A    between atoms: _639  and  _641
REMARK  259  A    between atoms: _641  and  _642
REMARK  260  A    between atoms: _641  and  _644
REMARK  261  A    between atoms: _644  and  _645
REMARK  262  A    between atoms: _648  and  _650
REMARK  263  A    between atoms: _650  and  _651
REMARK  264  A    between atoms: _650  and  _653
REMARK  265  A    between atoms: _653  and  _654
REMARK  266  A    between atoms: _659  and  _660
REMARK  267  A    between atoms: _662  and  _664
REMARK  268  A    between atoms: _664  and  _665
REMARK  269  A    between atoms: _668  and  _670
REMARK  270  A    between atoms: _670  and  _671
REMARK  271  A    between atoms: _670  and  _673
REMARK  272  A    between atoms: _673  and  _674
REMARK  273  A    between atoms: _674  and  _675
REMARK  274  A    between atoms: _681  and  _682
REMARK  275  A    between atoms: _687  and  _689
REMARK  276  A    between atoms: _689  and  _690
REMARK  277  A    between atoms: _689  and  _692
REMARK  278  A    between atoms: _692  and  _693
REMARK  279  A    between atoms: _696  and  _698
REMARK  280  A    between atoms: _698  and  _699
REMARK  281  A    between atoms: _698  and  _701
REMARK  282  A    between atoms: _701  and  _702
REMARK  283  A    between atoms: _702  and  _703
REMARK  284  A    between atoms: _706  and  _708
REMARK  285  A    between atoms: _708  and  _709
REMARK  286  A    between atoms: _708  and  _711
REMARK                            x       y       z     vdW  Elec       q    Type
REMARK                         _______ _______ _______ _____ _____    ______ ____
ROOT
ATOM      1  CA  VAL A   1      27.868 114.791  22.879  0.00  0.00    +0.133 C 
ENDROOT
BRANCH   1   2
ATOM      2  CB  VAL A   1      26.423 114.553  22.240  0.00  0.00    +0.023 C 
ATOM      3  CG2 VAL A   1      25.373 115.384  22.969  0.00  0.00    +0.002 C 
ATOM      4  CG1 VAL A   1      26.021 113.057  22.297  0.00  0.00    +0.002 C 
ENDBRANCH   1   2
BRANCH   1   5
ATOM      5  N   VAL A   1      28.889 114.264  22.007  0.00  0.00    -0.239 NA
ATOM      6  H   VAL A   1      29.084 113.242  22.010  0.00  0.00    +0.142 HD
ENDBRANCH   1   5
BRANCH   1   7
ATOM      7  C   VAL A   1      28.032 114.050  24.206  0.00  0.00    +0.224 C 
ATOM      8  O   VAL A   1      28.517 112.918  24.227  0.00  0.00    -0.287 OA
ENDBRANCH   1   7
TORSDOF 3
REMARK  Name = ../refined-set-2016/4tmk/4tmk_pocket.pdb
REMARK  286 active torsions:
REMARK  status: ('A' for Active; 'I' for Inactive)
REMARK    1  A    between atoms: _1  and  _3
REMARK    2  A    between atoms: _3  and  _4
REMARK    3  A    between atoms: _3  and  _6
REMARK    4  A    between atoms: _6  and  _7
REMARK    5  A    between atoms: _10  and  _12
REMARK    6  A    between atoms: _12  and  _13
REMARK    7  A    between atoms: _12  and  _15
REMARK    8  A    between atoms: _15  and  _16
REMARK    9  A    between atoms: _16  and  _17
REMARK   10  A    between atoms: _20  and  _22
REMARK   11  A    between atoms: _22  and  _23
REMARK   12  A    between atoms: _25  and  _27
REMARK   13  A    between atoms: _27  and  _28
REMARK   14  A    between atoms: _27  and  _30
REMARK   15  A    between atoms: _30  and  _31
REMARK   16  A    between atoms: _34  and  _36
REMARK   17  A    between atoms: _36  and  _37
REMARK   18  A    between atoms: _36  and  _39
REMARK   19  A    between atoms: _39  and  _40
REMARK   20  A    between atoms: _40  and  _41
REMARK   21  A    between atoms: _44  and  _46
REMARK   22  A    between atoms: _46  and  _47
REMARK   23  A    between atoms: _49  and  _51
REMARK   24  A    between atoms: _51  and  _52
REMARK   25  A    between atoms: _55  and  _57
REMARK   26  A    between atoms: _57  and  _58
REMARK   27  A    between atoms: _60  and  _62
REMARK   28  A    between atoms: _62  and  _63
REMARK   29  A    between atoms: _62  and  _65
REMARK   30  A    between atoms: _65  and  _66
REMARK   31  A    between atoms: _66  and  _67
REMARK   32  A    between atoms: _67  and  _68
REMARK   33  A    between atoms: _68  and  _69
REMARK   34  A    between atoms: _73  and  _75
REMARK   35  A    between atoms: _75  and  _76
REMARK   36  A    between atoms: _75  and  _78
REMARK   37  A    between atoms: _78  and  _79
REMARK   38  A    between atoms: _82  and  _84
REMARK   39  A    between atoms: _84  and  _85
REMARK   40  A    between atoms: _84  and  _87
REMARK   41  A    between atoms: _87  and  _88
REMARK   42  A    between atoms: _91  and  _93
REMARK   43  A    between atoms: _93  and  _94
REMARK   44  A    between atoms: _97  and  _99
REMARK   45  A    between atoms: _99  and  _100
REMARK   46  A    between atoms: _99  and  _102
REMARK   47  A    between atoms: _102  and  _103
REMARK   48  A    between atoms: _103  and  _104
REMARK   49  A    between atoms: _104  and  _105
REMARK   50  A    between atoms: _114  and  _116
REMARK   51  A    between atoms: _116  and  _117
REMARK   52  A    between atoms: _116  and  _119
REMARK   53  A    between atoms: _119  and  _120
REMARK   54  A    between atoms: _125  and  _127
REMARK   55  A    between atoms: _127  and  _128
REMARK   56  A    between atoms: _127  and  _130
REMARK   57  A    between atoms: _130  and  _131
REMARK   58  A    between atoms: _131  and  _132
REMARK   59  A    between atoms: _132  and  _133
REMARK   60  A    between atoms: _142  and  _144
REMARK   61  A    between atoms: _144  and  _145
REMARK   62  A    between atoms: _144  and  _147
REMARK   63  A    between atoms: _147  and  _148
REMARK   64  A    between atoms: _148  and  _149
REMARK   65  A    between atoms: _153  and  _154
REMARK   66  A    between atoms: _159  and  _161
REMARK   67  A    between atoms: _161  and  _162
REMARK   68  A    between atoms: _164  and  _166
REMARK   69  A    between atoms: _166  and  _167
REMARK   70  A    between atoms: _166  and  _169
REMARK   71  A    between atoms: _169  and  _170
REMARK   72  A    between atoms: _170  and  _171
REMARK   73  A    between atoms: _171  and  _172
REMARK   74  A    between atoms: _181  and  _183
REMARK   75  A    between atoms: _183  and  _184
REMARK   76  A    between atoms: _183  and  _186
REMARK   77  A    between atoms: _186  and  _187
REMARK   78  A    between atoms: _190  and  _192
REMARK   79  A    between atoms: _192  and  _193
REMARK   80  A    between atoms: _192  and  _195
REMARK   81  A    between atoms: _195  and  _196
REMARK   82  A    between atoms: _199  and  _201
REMARK   83  A    between atoms: _201  and  _202
REMARK   84  A    between atoms: _201  and  _204
REMARK   85  A    between atoms: _204  and  _205
REMARK   86  A    between atoms: _205  and  _206
REMARK   87  A    between atoms: _209  and  _211
REMARK   88  A    between atoms: _211  and  _212
REMARK   89  A    between atoms: _211  and  _214
REMARK   90  A    between atoms: _217  and  _219
REMARK   91  A    between atoms: _219  and  _220
REMARK   92  A    between atoms: _219  and  _222
REMARK   93  A    between atoms: _222  and  _223
REMARK   94  A    between atoms: _223  and  _224
REMARK   95  A    between atoms: _226  and  _228
REMARK   96  A    between atoms: _228  and  _229
REMARK   97  A    between atoms: _228  and  _231
REMARK   98  A    between atoms: _231  and  _232
REMARK   99  A    between atoms: _238  and  _240
REMARK  100  A    between atoms: _240  and  _241
REMARK  101  A    between atoms: _240  and  _243
REMARK  102  A    between atoms: _243  and  _244
REMARK  103  A    between atoms: _249  and  _250
REMARK  104  A    between atoms: _252  and  _254
REMARK  105  A    between atoms: _254  and  _255
REMARK  106  A    between atoms: _258  and  _260
REMARK  107  A    between atoms: _260  and  _261
REMARK  108  A    between atoms: _260  and  _263
REMARK  109  A    between atoms: _263  and  _264
REMARK  110  A    between atoms: _264  and  _265
REMARK  111  A    between atoms: _265  and  _266
REMARK  112  A    between atoms: _275  and  _277
REMARK  113  A    between atoms: _277  and  _278
REMARK  114  A    between atoms: _277  and  _280
REMARK  115  A    between atoms: _280  and  _281
REMARK  116  A    between atoms: _284  and  _286
REMARK  117  A    between atoms: _286  and  _287
REMARK  118  A    between atoms: _286  and  _289
REMARK  119  A    between atoms: _289  and  _290
REMARK  120  A    between atoms: _290  and  _291
REMARK  121  A    between atoms: _291  and  _292
REMARK  122  A    between atoms: _301  and  _303
REMARK  123  A    between atoms: _303  and  _304
REMARK  124  A    between atoms: _303  and  _306
REMARK  125  A    between atoms: _306  and  _307
REMARK  126  A    between atoms: _312  and  _314
REMARK  127  A    between atoms: _314  and  _315
REMARK  128  A    between atoms: _314  and  _317
REMARK  129  A    between atoms: _317  and  _318
REMARK  130  A    between atoms: _321  and  _323
REMARK  131  A    between atoms: _323  and  _324
REMARK  132  A    between atoms: _323  and  _326
REMARK  133  A    between atoms: _326  and  _327
REMARK  134  A    between atoms: _330  and  _332
REMARK  135  A    between atoms: _332  and  _333
REMARK  136  A    between atoms: _332  and  _335
REMARK  137  A    between atoms: _335  and  _336
REMARK  138  A    between atoms: _338  and  _340
REMARK  139  A    between atoms: _340  and  _341
REMARK  140  A    between atoms: _340  and  _343
REMARK  141  A    between atoms: _343  and  _344
REMARK  142  A    between atoms: _347  and  _349
REMARK  143  A    between atoms: _349  and  _350
REMARK  144  A    between atoms: _349  and  _352
REMARK  145  A    between atoms: _352  and  _353
REMARK  146  A    between atoms: _353  and  _354
REMARK  147  A    between atoms: _359  and  _361
REMARK  148  A    between atoms: _361  and  _362
REMARK  149  A    between atoms: _365  and  _367
REMARK  150  A    between atoms: _367  and  _368
REMARK  151  A    between atoms: _367  and  _370
REMARK  152  A    between atoms: _370  and  _371
REMARK  153  A    between atoms: _376  and  _377
REMARK  154  A    between atoms: _379  and  _381
REMARK  155  A    between atoms: _381  and  _382
REMARK  156  A    between atoms: _381  and  _384
REMARK  157  A    between atoms: _384  and  _385
REMARK  158  A    between atoms: _385  and  _386
REMARK  159  A    between atoms: _391  and  _393
REMARK  160  A    between atoms: _393  and  _394
REMARK  161  A    between atoms: _396  and  _398
REMARK  162  A    between atoms: _398  and  _399
REMARK  163  A    between atoms: _401  and  _403
REMARK  164  A    between atoms: _403  and  _404
REMARK  165  A    between atoms: _403  and  _406
REMARK  166  A    between atoms: _406  and  _407
REMARK  167  A    between atoms: _407  and  _408
REMARK  168  A    between atoms: _408  and  _409
REMARK  169  A    between atoms: _418  and  _420
REMARK  170  A    between atoms: _420  and  _421
REMARK  171  A    between atoms: _420  and  _423
REMARK  172  A    between atoms: _423  and  _424
REMARK  173  A    between atoms: _427  and  _429
REMARK  174  A    between atoms: _429  and  _430
REMARK  175  A    between atoms: _429  and  _432
REMARK  176  A    between atoms: _435  and  _437
REMARK  177  A    between atoms: _437  and  _438
REMARK  178  A    between atoms: _437  and  _440
REMARK  179  A    between atoms: _443  and  _445
REMARK  180  A    between atoms: _445  and  _446
REMARK  181  A    between atoms: _448  and  _450
REMARK  182  A    between atoms: _450  and  _451
REMARK  183  A    between atoms: _450  and  _453
REMARK  184  A    between atoms: _453  and  _454
REMARK  185  A    between atoms: _454  and  _455
REMARK  186  A    between atoms: _455  and  _456
REMARK  187  A    between atoms: _456  and  _457
REMARK  188  A    between atoms: _461  and  _463
REMARK  189  A    between atoms: _463  and  _464
REMARK  190  A    between atoms: _463  and  _466
REMARK  191  A    between atoms: _466  and  _467
REMARK  192  A    between atoms: _467  and  _468
REMARK  193  A    between atoms: _468  and  _469
REMARK  194  A    between atoms: _478  and  _480
REMARK  195  A    between atoms: _480  and  _481
REMARK  196  A    between atoms: _484  and  _486
REMARK  197  A    between atoms: _486  and  _487
REMARK  198  A    between atoms: _486  and  _489
REMARK  199  A    between atoms: _489  and  _490
REMARK  200  A    between atoms: _490  and  _491
REMARK  201  A    between atoms: _491  and  _492
REMARK  202  A    between atoms: _501  and  _503
REMARK  203  A    between atoms: _503  and  _504
REMARK  204  A    between atoms: _507  and  _509
REMARK  205  A    between atoms: _509  and  _510
REMARK  206  A    between atoms: _509  and  _512
REMARK  207  A    between atoms: _512  and  _513
REMARK  208  A    between atoms: _513  and  _514
REMARK  209  A    between atoms: _514  and  _515
REMARK  210  A    between atoms: _524  and  _526
REMARK  211  A    between atoms: _526  and  _527
REMARK  212  A    between atoms: _529  and  _531
REMARK  213  A    between atoms: _531  and  _532
REMARK  214  A    between atoms: _531  and  _534
REMARK  215  A    between atoms: _534  and  _535
REMARK  216  A    between atoms: _535  and  _536
REMARK  217  A    between atoms: _539  and  _541
REMARK  218  A    between atoms: _541  and  _542
REMARK  219  A    between atoms: _541  and  _544
REMARK  220  A    between atoms: _544  and  _545
REMARK  221  A    between atoms: _548  and  _550
REMARK  222  A    between atoms: _550  and  _551
REMARK  223  A    between atoms: _550  and  _553
REMARK  224  A    between atoms: _553  and  _554
REMARK  225  A    between atoms: _557  and  _559
REMARK  226  A    between atoms: _559  and  _560
REMARK  227  A    between atoms: _559  and  _562
REMARK  228  A    between atoms: _562  and  _563
REMARK  229  A    between atoms: _563  and  _564
REMARK  230  A    between atoms: _564  and  _565
REMARK  231  A    between atoms: _574  and  _576
REMARK  232  A    between atoms: _576  and  _577
REMARK  233  A    between atoms: _576  and  _579
REMARK  234  A    between atoms: _579  and  _580
REMARK  235  A    between atoms: _583  and  _585
REMARK  236  A    between atoms: _585  and  _586
REMARK  237  A    between atoms: _585  and  _588
REMARK  238  A    between atoms: _588  and  _589
REMARK  239  A    between atoms: _589  and  _590
REMARK  240  A    between atoms: _593  and  _595
REMARK  241  A    between atoms: _595  and  _596
REMARK  242  A    between atoms: _595  and  _598
REMARK  243  A    between atoms: _598  and  _599
REMARK  244  A    between atoms: _599  and  _600
REMARK  245  A    between atoms: _605  and  _607
REMARK  246  A    between atoms: _607  and  _608
REMARK  247  A    between atoms: _607  and  _610
REMARK  248  A    between atoms: _610  and  _611
REMARK  249  A    between atoms: _611  and  _612
REMARK  250  A    between atoms: _615  and  _617
REMARK  251  A    between atoms: _617  and  _618
REMARK  252  A    between atoms: _617  and  _620
REMARK  253  A    between atoms: _620  and  _621
REMARK  254  A    between atoms: _627  and  _629
REMARK  255  A    between atoms: _629  and  _630
REMARK  256  A    between atoms: _629  and  _632
REMARK  257  A    between atoms: _632  and  _633
REMARK  258  A    between atoms: _639  and  _641
REMARK  259  A    between atoms: _641  and  _642
REMARK  260  A    between atoms: _641  and  _644
REMARK  261  A    between atoms: _644  and  _645
REMARK  262  A    between atoms: _648  and  _650
REMARK  263  A    between atoms: _650  and  _651
REMARK  264  A    between atoms: _650  and  _653
REMARK  265  A    between atoms: _653  and  _654
REMARK  266  A    between atoms: _659  and  _660
REMARK  267  A    between atoms: _662  and  _664
REMARK  268  A    between atoms: _664  and  _665
REMARK  269  A    between atoms: _668  and  _670
REMARK  270  A    between atoms: _670  and  _671
REMARK  271  A    between atoms: _670  and  _673
REMARK  272  A    between atoms: _673  and  _674
REMARK  273  A    between atoms: _674  and  _675
REMARK  274  A    between atoms: _681  and  _682
REMARK  275  A    between atoms: _687  and  _689
REMARK  276  A    between atoms: _689  and  _690
REMARK  277  A    between atoms: _689  and  _692
REMARK  278  A    between atoms: _692  and  _693
REMARK  279  A    between atoms: _696  and  _698
REMARK  280  A    between atoms: _698  and  _699
REMARK  281  A    between atoms: _698  and  _701
REMARK  282  A    between atoms: _701  and  _702
REMARK  283  A    between atoms: _702  and  _703
REMARK  284  A    between atoms: _706  and  _708
REMARK  285  A    between atoms: _708  and  _709
REMARK  286  A    between atoms: _708  and  _711
REMARK                            x       y       z     vdW  Elec       q    Type
REMARK                         _______ _______ _______ _____ _____    ______ ____
ROOT
ATOM      1  C   VAL A   1      21.921 113.919  25.889  0.00  0.00    +0.238 C 
ATOM      2  N   GLY A   2      22.732 112.947  25.462  0.00  0.00    -0.297 N 
ATOM      3  H   GLY A   2      23.689 112.850  25.858  0.00  0.00    +0.150 HD
ATOM      4  O   VAL A   1      20.784 114.084  25.435  0.00  0.00    -0.274 OA
ENDROOT
BRANCH   1   5
ATOM      5  CA  VAL A   1      22.443 114.846  26.981  0.00  0.00    +0.145 C 
BRANCH   5   6
ATOM      6  CB  VAL A   1      23.256 115.969  26.327  0.00  0.00    +0.025 C 
ATOM      7  CG2 VAL A   1      23.466 117.111  27.326  0.00  0.00    +0.002 C 
ATOM      8  CG1 VAL A   1      22.530 116.478  25.095  0.00  0.00    +0.002 C 
ENDBRANCH   5   6
BRANCH   5   9
ATOM      9  N   VAL A   1      23.226 114.097  27.944  0.00  0.00    -0.238 NA
ATOM     10  H   VAL A   1      24.261 114.197  27.953  0.00  0.00    +0.142 HD
ENDBRANCH   5   9
ENDBRANCH   1   5
BRANCH   2  11
ATOM     11  CA  GLY A   2      22.263 112.025  24.437  0.00  0.00    +0.163 C 
BRANCH  11  12
ATOM     12  C   GLY A   2      21.065 111.229  24.951  0.00  0.00    +0.229 C 
ATOM     13  O   GLY A   2      20.051 111.103  24.263  0.00  0.00    -0.286 OA
ENDBRANCH  11  12
ENDBRANCH   2  11
TORSDOF 5
REMARK  Name = ../refined-set-2016/4tmk/4tmk_pocket.pdb
REMARK  286 active torsions:
REMARK  status: ('A' for Active; 'I' for Inactive)
REMARK    1  A    between atoms: _1  and  _3
REMARK    2  A    between atoms: _3  and  _4
REMARK    3  A    between atoms: _3  and  _6
REMARK    4  A    between atoms: _6  and  _7
REMARK    5  A    between atoms: _10  and  _12
REMARK    6  A    between atoms: _12  and  _13
REMARK    7  A    between atoms: _12  and  _15
REMARK    8  A    between atoms: _15  and  _16
REMARK    9  A    between atoms: _16  and  _17
REMARK   10  A    between atoms: _20  and  _22
REMARK   11  A    between atoms: _22  and  _23
REMARK   12  A    between atoms: _25  and  _27
REMARK   13  A    between atoms: _27  and  _28
REMARK   14  A    between atoms: _27  and  _30
REMARK   15  A    between atoms: _30  and  _31
REMARK   16  A    between atoms: _34  and  _36
REMARK   17  A    between atoms: _36  and  _37
REMARK   18  A    between atoms: _36  and  _39
REMARK   19  A    between atoms: _39  and  _40
REMARK   20  A    between atoms: _40  and  _41
REMARK   21  A    between atoms: _44  and  _46
REMARK   22  A    between atoms: _46  and  _47
REMARK   23  A    between atoms: _49  and  _51
REMARK   24  A    between atoms: _51  and  _52
REMARK   25  A    between atoms: _55  and  _57
REMARK   26  A    between atoms: _57  and  _58
REMARK   27  A    between atoms: _60  and  _62
REMARK   28  A    between atoms: _62  and  _63
REMARK   29  A    between atoms: _62  and  _65
REMARK   30  A    between atoms: _65  and  _66
REMARK   31  A    between atoms: _66  and  _67
REMARK   32  A    between atoms: _67  and  _68
REMARK   33  A    between atoms: _68  and  _69
REMARK   34  A    between atoms: _73  and  _75
REMARK   35  A    between atoms: _75  and  _76
REMARK   36  A    between atoms: _75  and  _78
REMARK   37  A    between atoms: _78  and  _79
REMARK   38  A    between atoms: _82  and  _84
REMARK   39  A    between atoms: _84  and  _85
REMARK   40  A    between atoms: _84  and  _87
REMARK   41  A    between atoms: _87  and  _88
REMARK   42  A    between atoms: _91  and  _93
REMARK   43  A    between atoms: _93  and  _94
REMARK   44  A    between atoms: _97  and  _99
REMARK   45  A    between atoms: _99  and  _100
REMARK   46  A    between atoms: _99  and  _102
REMARK   47  A    between atoms: _102  and  _103
REMARK   48  A    between atoms: _103  and  _104
REMARK   49  A    between atoms: _104  and  _105
REMARK   50  A    between atoms: _114  and  _116
REMARK   51  A    between atoms: _116  and  _117
REMARK   52  A    between atoms: _116  and  _119
REMARK   53  A    between atoms: _119  and  _120
REMARK   54  A    between atoms: _125  and  _127
REMARK   55  A    between atoms: _127  and  _128
REMARK   56  A    between atoms: _127  and  _130
REMARK   57  A    between atoms: _130  and  _131
REMARK   58  A    between atoms: _131  and  _132
REMARK   59  A    between atoms: _132  and  _133
REMARK   60  A    between atoms: _142  and  _144
REMARK   61  A    between atoms: _144  and  _145
REMARK   62  A    between atoms: _144  and  _147
REMARK   63  A    between atoms: _147  and  _148
REMARK   64  A    between atoms: _148  and  _149
REMARK   65  A    between atoms: _153  and  _154
REMARK   66  A    between atoms: _159  and  _161
REMARK   67  A    between atoms: _161  and  _162
REMARK   68  A    between atoms: _164  and  _166
REMARK   69  A    between atoms: _166  and  _167
REMARK   70  A    between atoms: _166  and  _169
REMARK   71  A    between atoms: _169  and  _170
REMARK   72  A    between atoms: _170  and  _171
REMARK   73  A    between atoms: _171  and  _172
REMARK   74  A    between atoms: _181  and  _183
REMARK   75  A    between atoms: _183  and  _184
REMARK   76  A    between atoms: _183  and  _186
REMARK   77  A    between atoms: _186  and  _187
REMARK   78  A    between atoms: _190  and  _192
REMARK   79  A    between atoms: _192  and  _193
REMARK   80  A    between atoms: _192  and  _195
REMARK   81  A    between atoms: _195  and  _196
REMARK   82  A    between atoms: _199  and  _201
REMARK   83  A    between atoms: _201  and  _202
REMARK   84  A    between atoms: _201  and  _204
REMARK   85  A    between atoms: _204  and  _205
REMARK   86  A    between atoms: _205  and  _206
REMARK   87  A    between atoms: _209  and  _211
REMARK   88  A    between atoms: _211  and  _212
REMARK   89  A    between atoms: _211  and  _214
REMARK   90  A    between atoms: _217  and  _219
REMARK   91  A    between atoms: _219  and  _220
REMARK   92  A    between atoms: _219  and  _222
REMARK   93  A    between atoms: _222  and  _223
REMARK   94  A    between atoms: _223  and  _224
REMARK   95  A    between atoms: _226  and  _228
REMARK   96  A    between atoms: _228  and  _229
REMARK   97  A    between atoms: _228  and  _231
REMARK   98  A    between atoms: _231  and  _232
REMARK   99  A    between atoms: _238  and  _240
REMARK  100  A    between atoms: _240  and  _241
REMARK  101  A    between atoms: _240  and  _243
REMARK  102  A    between atoms: _243  and  _244
REMARK  103  A    between atoms: _249  and  _250
REMARK  104  A    between atoms: _252  and  _254
REMARK  105  A    between atoms: _254  and  _255
REMARK  106  A    between atoms: _258  and  _260
REMARK  107  A    between atoms: _260  and  _261
REMARK  108  A    between atoms: _260  and  _263
REMARK  109  A    between atoms: _263  and  _264
REMARK  110  A    between atoms: _264  and  _265
REMARK  111  A    between atoms: _265  and  _266
REMARK  112  A    between atoms: _275  and  _277
REMARK  113  A    between atoms: _277  and  _278
REMARK  114  A    between atoms: _277  and  _280
REMARK  115  A    between atoms: _280  and  _281
REMARK  116  A    between atoms: _284  and  _286
REMARK  117  A    between atoms: _286  and  _287
REMARK  118  A    between atoms: _286  and  _289
REMARK  119  A    between atoms: _289  and  _290
REMARK  120  A    between atoms: _290  and  _291
REMARK  121  A    between atoms: _291  and  _292
REMARK  122  A    between atoms: _301  and  _303
REMARK  123  A    between atoms: _303  and  _304
REMARK  124  A    between atoms: _303  and  _306
REMARK  125  A    between atoms: _306  and  _307
REMARK  126  A    between atoms: _312  and  _314
REMARK  127  A    between atoms: _314  and  _315
REMARK  128  A    between atoms: _314  and  _317
REMARK  129  A    between atoms: _317  and  _318
REMARK  130  A    between atoms: _321  and  _323
REMARK  131  A    between atoms: _323  and  _324
REMARK  132  A    between atoms: _323  and  _326
REMARK  133  A    between atoms: _326  and  _327
REMARK  134  A    between atoms: _330  and  _332
REMARK  135  A    between atoms: _332  and  _333
REMARK  136  A    between atoms: _332  and  _335
REMARK  137  A    between atoms: _335  and  _336
REMARK  138  A    between atoms: _338  and  _340
REMARK  139  A    between atoms: _340  and  _341
REMARK  140  A    between atoms: _340  and  _343
REMARK  141  A    between atoms: _343  and  _344
REMARK  142  A    between atoms: _347  and  _349
REMARK  143  A    between atoms: _349  and  _350
REMARK  144  A    between atoms: _349  and  _352
REMARK  145  A    between atoms: _352  and  _353
REMARK  146  A    between atoms: _353  and  _354
REMARK  147  A    between atoms: _359  and  _361
REMARK  148  A    between atoms: _361  and  _362
REMARK  149  A    between atoms: _365  and  _367
REMARK  150  A    between atoms: _367  and  _368
REMARK  151  A    between atoms: _367  and  _370
REMARK  152  A    between atoms: _370  and  _371
REMARK  153  A    between atoms: _376  and  _377
REMARK  154  A    between atoms: _379  and  _381
REMARK  155  A    between atoms: _381  and  _382
REMARK  156  A    between atoms: _381  and  _384
REMARK  157  A    between atoms: _384  and  _385
REMARK  158  A    between atoms: _385  and  _386
REMARK  159  A    between atoms: _391  and  _393
REMARK  160  A    between atoms: _393  and  _394
REMARK  161  A    between atoms: _396  and  _398
REMARK  162  A    between atoms: _398  and  _399
REMARK  163  A    between atoms: _401  and  _403
REMARK  164  A    between atoms: _403  and  _404
REMARK  165  A    between atoms: _403  and  _406
REMARK  166  A    between atoms: _406  and  _407
REMARK  167  A    between atoms: _407  and  _408
REMARK  168  A    between atoms: _408  and  _409
REMARK  169  A    between atoms: _418  and  _420
REMARK  170  A    between atoms: _420  and  _421
REMARK  171  A    between atoms: _420  and  _423
REMARK  172  A    between atoms: _423  and  _424
REMARK  173  A    between atoms: _427  and  _429
REMARK  174  A    between atoms: _429  and  _430
REMARK  175  A    between atoms: _429  and  _432
REMARK  176  A    between atoms: _435  and  _437
REMARK  177  A    between atoms: _437  and  _438
REMARK  178  A    between atoms: _437  and  _440
REMARK  179  A    between atoms: _443  and  _445
REMARK  180  A    between atoms: _445  and  _446
REMARK  181  A    between atoms: _448  and  _450
REMARK  182  A    between atoms: _450  and  _451
REMARK  183  A    between atoms: _450  and  _453
REMARK  184  A    between atoms: _453  and  _454
REMARK  185  A    between atoms: _454  and  _455
REMARK  186  A    between atoms: _455  and  _456
REMARK  187  A    between atoms: _456  and  _457
REMARK  188  A    between atoms: _461  and  _463
REMARK  189  A    between atoms: _463  and  _464
REMARK  190  A    between atoms: _463  and  _466
REMARK  191  A    between atoms: _466  and  _467
REMARK  192  A    between atoms: _467  and  _468
REMARK  193  A    between atoms: _468  and  _469
REMARK  194  A    between atoms: _478  and  _480
REMARK  195  A    between atoms: _480  and  _481
REMARK  196  A    between atoms: _484  and  _486
REMARK  197  A    between atoms: _486  and  _487
REMARK  198  A    between atoms: _486  and  _489
REMARK  199  A    between atoms: _489  and  _490
REMARK  200  A    between atoms: _490  and  _491
REMARK  201  A    between atoms: _491  and  _492
REMARK  202  A    between atoms: _501  and  _503
REMARK  203  A    between atoms: _503  and  _504
REMARK  204  A    between atoms: _507  and  _509
REMARK  205  A    between atoms: _509  and  _510
REMARK  206  A    between atoms: _509  and  _512
REMARK  207  A    between atoms: _512  and  _513
REMARK  208  A    between atoms: _513  and  _514
REMARK  209  A    between atoms: _514  and  _515
REMARK  210  A    between atoms: _524  and  _526
REMARK  211  A    between atoms: _526  and  _527
REMARK  212  A    between atoms: _529  and  _531
REMARK  213  A    between atoms: _531  and  _532
REMARK  214  A    between atoms: _531  and  _534
REMARK  215  A    between atoms: _534  and  _535
REMARK  216  A    between atoms: _535  and  _536
REMARK  217  A    between atoms: _539  and  _541
REMARK  218  A    between atoms: _541  and  _542
REMARK  219  A    between atoms: _541  and  _544
REMARK  220  A    between atoms: _544  and  _545
REMARK  221  A    between atoms: _548  and  _550
REMARK  222  A    between atoms: _550  and  _551
REMARK  223  A    between atoms: _550  and  _553
REMARK  224  A    between atoms: _553  and  _554
REMARK  225  A    between atoms: _557  and  _559
REMARK  226  A    between atoms: _559  and  _560
REMARK  227  A    between atoms: _559  and  _562
REMARK  228  A    between atoms: _562  and  _563
REMARK  229  A    between atoms: _563  and  _564
REMARK  230  A    between atoms: _564  and  _565
REMARK  231  A    between atoms: _574  and  _576
REMARK  232  A    between atoms: _576  and  _577
REMARK  233  A    between atoms: _576  and  _579
REMARK  234  A    between atoms: _579  and  _580
REMARK  235  A    between atoms: _583  and  _585
REMARK  236  A    between atoms: _585  and  _586
REMARK  237  A    between atoms: _585  and  _588
REMARK  238  A    between atoms: _588  and  _589
REMARK  239  A    between atoms: _589  and  _590
REMARK  240  A    between atoms: _593  and  _595
REMARK  241  A    between atoms: _595  and  _596
REMARK  242  A    between atoms: _595  and  _598
REMARK  243  A    between atoms: _598  and  _599
REMARK  244  A    between atoms: _599  and  _600
REMARK  245  A    between atoms: _605  and  _607
REMARK  246  A    between atoms: _607  and  _608
REMARK  247  A    between atoms: _607  and  _610
REMARK  248  A    between atoms: _610  and  _611
REMARK  249  A    between atoms: _611  and  _612
REMARK  250  A    between atoms: _615  and  _617
REMARK  251  A    between atoms: _617  and  _618
REMARK  252  A    between atoms: _617  and  _620
REMARK  253  A    between atoms: _620  and  _621
REMARK  254  A    between atoms: _627  and  _629
REMARK  255  A    between atoms: _629  and  _630
REMARK  256  A    between atoms: _629  and  _632
REMARK  257  A    between atoms: _632  and  _633
REMARK  258  A    between atoms: _639  and  _641
REMARK  259  A    between atoms: _641  and  _642
REMARK  260  A    between atoms: _641  and  _644
REMARK  261  A    between atoms: _644  and  _645
REMARK  262  A    between atoms: _648  and  _650
REMARK  263  A    between atoms: _650  and  _651
REMARK  264  A    between atoms: _650  and  _653
REMARK  265  A    between atoms: _653  and  _654
REMARK  266  A    between atoms: _659  and  _660
REMARK  267  A    between atoms: _662  and  _664
REMARK  268  A    between atoms: _664  and  _665
REMARK  269  A    between atoms: _668  and  _670
REMARK  270  A    between atoms: _670  and  _671
REMARK  271  A    between atoms: _670  and  _673
REMARK  272  A    between atoms: _673  and  _674
REMARK  273  A    between atoms: _674  and  _675
REMARK  274  A    between atoms: _681  and  _682
REMARK  275  A    between atoms: _687  and  _689
REMARK  276  A    between atoms: _689  and  _690
REMARK  277  A    between atoms: _689  and  _692
REMARK  278  A    between atoms: _692  and  _693
REMARK  279  A    between atoms: _696  and  _698
REMARK  280  A    between atoms: _698  and  _699
REMARK  281  A    between atoms: _698  and  _701
REMARK  282  A    between atoms: _701  and  _702
REMARK  283  A    between atoms: _702  and  _703
REMARK  284  A    between atoms: _706  and  _708
REMARK  285  A    between atoms: _708  and  _709
REMARK  286  A    between atoms: _708  and  _711
REMARK                            x       y       z     vdW  Elec       q    Type
REMARK                         _______ _______ _______ _____ _____    ______ ____
ROOT
ATOM      1  CA  GLU A   8      10.813 104.227  24.016  0.00  0.00    +0.149 C 
ENDROOT
BRANCH   1   2
ATOM      2  C   GLU A   8      12.266 104.007  23.631  0.00  0.00    +0.241 C 
ATOM      3  N   LEU A   9      13.069 103.521  24.571  0.00  0.00    -0.297 N 
ATOM      4  H   LEU A   9      12.682 103.303  25.512  0.00  0.00    +0.150 HD
ATOM      5  O   GLU A   8      12.644 104.248  22.493  0.00  0.00    -0.273 OA
BRANCH   3   6
ATOM      6  CA  LEU A   9      14.487 103.287  24.305  0.00  0.00    +0.149 C 
BRANCH   6   7
ATOM      7  C   LEU A   9      14.723 101.882  23.764  0.00  0.00    +0.241 C 
ATOM      8  O   LEU A   9      14.143 100.927  24.270  0.00  0.00    -0.273 OA
ATOM      9  N   ASP A  10      15.557 101.745  22.739  0.00  0.00    -0.297 N 
ATOM     10  H   ASP A  10      16.001 102.585  22.315  0.00  0.00    +0.150 HD
BRANCH   9  11
ATOM     11  CA  ASP A  10      15.850 100.423  22.208  0.00  0.00    +0.160 C 
BRANCH  11  12
ATOM     12  C   ASP A  10      16.669  99.653  23.243  0.00  0.00    +0.241 C 
ATOM     13  O   ASP A  10      17.005 100.196  24.305  0.00  0.00    -0.273 OA
ATOM     14  N   ARG A  11      16.979  98.391  22.947  0.00  0.00    -0.297 N 
ATOM     15  H   ARG A  11      16.699  98.001  22.025  0.00  0.00    +0.150 HD
BRANCH  14  16
ATOM     16  CA  ARG A  11      17.705  97.544  23.893  0.00  0.00    +0.149 C 
BRANCH  16  17
ATOM     17  C   ARG A  11      19.042  98.132  24.330  0.00  0.00    +0.241 C 
ATOM     18  O   ARG A  11      19.404  98.084  25.504  0.00  0.00    -0.273 OA
ATOM     19  N   ILE A  12      19.782  98.683  23.384  0.00  0.00    -0.297 N 
ATOM     20  H   ILE A  12      19.432  98.716  22.405  0.00  0.00    +0.150 HD
BRANCH  19  21
ATOM     21  CA  ILE A  12      21.077  99.240  23.707  0.00  0.00    +0.149 C 
BRANCH  21  22
ATOM     22  C   ILE A  12      20.983 100.570  24.444  0.00  0.00    +0.241 C 
ATOM     23  O   ILE A  12      21.733 100.801  25.395  0.00  0.00    -0.273 OA
ATOM     24  N   GLU A  13      20.042 101.429  24.052  0.00  0.00    -0.297 N 
ATOM     25  H   GLU A  13      19.406 101.176  23.269  0.00  0.00    +0.150 HD
BRANCH  24  26
ATOM     26  CA  GLU A  13      19.897 102.730  24.718  0.00  0.00    +0.149 C 
BRANCH  26  27
ATOM     27  C   GLU A  13      19.440 102.615  26.184  0.00  0.00    +0.241 C 
ATOM     28  O   GLU A  13      19.489 103.584  26.964  0.00  0.00    -0.273 OA
ATOM     29  N   GLN A  14      19.009 101.422  26.572  0.00  0.00    -0.297 N 
ATOM     30  H   GLN A  14      18.968 100.640  25.888  0.00  0.00    +0.150 HD
BRANCH  29  31
ATOM     31  CA  GLN A  14      18.592 101.200  27.952  0.00  0.00    +0.149 C 
BRANCH  31  32
ATOM     32  C   GLN A  14      19.820 100.906  28.830  0.00  0.00    +0.241 C 
ATOM     33  O   GLN A  14      19.687 100.596  30.018  0.00  0.00    -0.273 OA
ATOM     34  N   GLU A  15      21.017 101.004  28.248  0.00  0.00    -0.298 N 
ATOM     35  H   GLU A  15      21.075 101.290  27.250  0.00  0.00    +0.150 HD
BRANCH  34  36
ATOM     36  CA  GLU A  15      22.253 100.717  28.986  0.00  0.00    +0.137 C 
BRANCH  36  37
ATOM     37  C   GLU A  15      22.569 101.731  30.085  0.00  0.00    +0.227 C 
ATOM     38  O   GLU A  15      21.890 102.744  30.212  0.00  0.00    -0.286 OA
ENDBRANCH  36  37
BRANCH  36  39
ATOM     39  CB  GLU A  15      23.408 100.622  27.997  0.00  0.00    +0.039 C 
BRANCH  39  40
ATOM     40  CG  GLU A  15      23.575  99.231  27.471  0.00  0.00    +0.116 C 
BRANCH  40  41
ATOM     41  CD  GLU A  15      23.768  98.230  28.596  0.00  0.00    +0.365 C 
ATOM     42  OE2 GLU A  15      24.198  98.643  29.700  0.00  0.00    -0.246 OA
ATOM     43  OE1 GLU A  15      23.486  97.034  28.384  0.00  0.00    -0.246 OA
ENDBRANCH  40  41
ENDBRANCH  39  40
ENDBRANCH  36  39
ENDBRANCH  34  36
ENDBRANCH  31  32
BRANCH  31  44
ATOM     44  CB  GLN A  14      17.634 100.013  28.017  0.00  0.00    +0.039 C 
BRANCH  44  45
ATOM     45  CG  GLN A  14      16.315 100.271  27.356  0.00  0.00    +0.087 C 
BRANCH  45  46
ATOM     46  CD  GLN A  14      15.246  99.294  27.800  0.00  0.00    +0.219 C 
ATOM     47  OE1 GLN A  14      15.545  98.178  28.243  0.00  0.00    -0.275 OA
ATOM     48  NE2 GLN A  14      13.988  99.705  27.678  0.00  0.00    -0.329 N 
ATOM     49 HE21 GLN A  14      13.207  99.079  27.960  0.00  0.00    +0.145 HD
ATOM     50 HE22 GLN A  14      13.785 100.652  27.300  0.00  0.00    +0.145 HD
ENDBRANCH  45  46
ENDBRANCH  44  45
ENDBRANCH  31  44
ENDBRANCH  29  31
ENDBRANCH  26  27
BRANCH  26  51
ATOM     51  CB  GLU A  13      18.949 103.637  23.916  0.00  0.00    +0.041 C 
BRANCH  51  52
ATOM     52  CG  GLU A  13      18.992 105.084  24.341  0.00  0.00    +0.116 C 
BRANCH  52  53
ATOM     53  CD  GLU A  13      20.329 105.771  24.011  0.00  0.00    +0.365 C 
ATOM     54  OE2 GLU A  13      20.554 106.919  24.478  0.00  0.00    -0.246 OA
ATOM     55  OE1 GLU A  13      21.148 105.165  23.284  0.00  0.00    -0.246 OA
ENDBRANCH  52  53
ENDBRANCH  51  52
ENDBRANCH  26  51
ENDBRANCH  24  26
ENDBRANCH  21  22
BRANCH  21  56
ATOM     56  CB  ILE A  12      21.911  99.355  22.425  0.00  0.00    +0.027 C 
ATOM     57  CG2 ILE A  12      23.146 100.240  22.657  0.00  0.00    +0.002 C 
BRANCH  56  58
ATOM     58  CG1 ILE A  12      22.305  97.936  21.981  0.00  0.00    +0.002 C 
ATOM     59  CD1 ILE A  12      22.793  97.844  20.569  0.00  0.00    +0.000 C 
ENDBRANCH  56  58
ENDBRANCH  21  56
ENDBRANCH  19  21
ENDBRANCH  16  17
BRANCH  16  60
ATOM     60  CB  ARG A  11      17.935  96.136  23.297  0.00  0.00    +0.033 C 
BRANCH  60  61
ATOM     61  CG  ARG A  11      18.609  95.168  24.293  0.00  0.00    +0.045 C 
BRANCH  61  62
ATOM     62  CD  ARG A  11      18.899  93.785  23.691  0.00  0.00    +0.174 C 
BRANCH  62  63
ATOM     63  NE  ARG A  11      19.671  93.869  22.459  0.00  0.00    -0.265 N 
ATOM     64  CZ  ARG A  11      20.994  93.725  22.388  0.00  0.00    +0.342 C 
ATOM     65  NH2 ARG A  11      21.716  93.484  23.480  0.00  0.00    -0.292 N 
ATOM     66 HH21 ARG A  11      21.248  93.406  24.406  0.00  0.00    +0.255 HD
ATOM     67 HH22 ARG A  11      22.748  93.374  23.408  0.00  0.00    +0.255 HD
ATOM     68  NH1 ARG A  11      21.603  93.852  21.220  0.00  0.00    -0.292 N 
ATOM     69 HH11 ARG A  11      22.635  93.741  21.157  0.00  0.00    +0.255 HD
ATOM     70 HH12 ARG A  11      21.049  94.063  20.365  0.00  0.00    +0.255 HD
ATOM     71  HE  ARG A  11      19.155  94.054  21.575  0.00  0.00    +0.259 HD
ENDBRANCH  62  63
ENDBRANCH  61  62
ENDBRANCH  60  61
ENDBRANCH  16  60
ENDBRANCH  14  16
ENDBRANCH  11  12
BRANCH  11  72
ATOM     72  CB  ASP A  10      16.596 100.519  20.882  0.00  0.00    +0.143 C 
BRANCH  72  73
ATOM     73  CG  ASP A  10      17.931 101.234  20.997  0.00  0.00    +0.367 C 
ATOM     74  OD2 ASP A  10      18.828 100.789  21.750  0.00  0.00    -0.246 OA
ATOM     75  OD1 ASP A  10      18.067 102.251  20.298  0.00  0.00    -0.246 OA
ENDBRANCH  72  73
ENDBRANCH  11  72
ENDBRANCH   9  11
ENDBRANCH   6   7
BRANCH   6  76
ATOM     76  CB  LEU A   9      15.284 103.471  25.595  0.00  0.00    +0.029 C 
BRANCH  76  77
ATOM     77  CG  LEU A   9      15.029 104.747  26.399  0.00  0.00    +0.002 C 
ATOM     78  CD2 LEU A   9      15.851 104.706  27.658  0.00  0.00    +0.000 C 
ATOM     79  CD1 LEU A   9      15.385 105.958  25.555  0.00  0.00    +0.000 C 
ENDBRANCH  76  77
ENDBRANCH   6  76
ENDBRANCH   3   6
ENDBRANCH   1   2
BRANCH   1  82
ATOM     80  C   GLY A   7      10.818 106.647  23.648  0.00  0.00    +0.243 C 
ATOM     81  O   GLY A   7      11.741 106.816  24.445  0.00  0.00    -0.273 OA
ATOM     82  N   GLU A   8      10.312 105.447  23.381  0.00  0.00    -0.297 N 
ATOM     83  H   GLU A   8       9.532 105.372  22.697  0.00  0.00    +0.150 HD
BRANCH  80  84
ATOM     84  CA  GLY A   7      10.184 107.825  22.916  0.00  0.00    +0.176 C 
BRANCH  84  86
ATOM     85  C   ARG A   6      10.890 109.854  21.784  0.00  0.00    +0.241 C 
ATOM     86  N   GLY A   7      11.074 108.963  22.756  0.00  0.00    -0.295 N 
ATOM     87  H   GLY A   7      11.870 109.084  23.414  0.00  0.00    +0.150 HD
ATOM     88  O   ARG A   6       9.974 109.780  20.969  0.00  0.00    -0.273 OA
BRANCH  85  89
ATOM     89  CA  ARG A   6      11.903 110.990  21.703  0.00  0.00    +0.149 C 
BRANCH  89  92
ATOM     90  C   ALA A   5      11.631 112.211  23.790  0.00  0.00    +0.241 C 
ATOM     91  O   ALA A   5      10.473 112.513  23.511  0.00  0.00    -0.273 OA
ATOM     92  N   ARG A   6      12.392 111.473  22.990  0.00  0.00    -0.297 N 
ATOM     93  H   ARG A   6      13.359 111.234  23.288  0.00  0.00    +0.150 HD
BRANCH  90  94
ATOM     94  CA  ALA A   5      12.266 112.668  25.095  0.00  0.00    +0.149 C 
ATOM     95  CB  ALA A   5      12.908 114.046  24.924  0.00  0.00    +0.031 C 
BRANCH  94  98
ATOM     96  C   ARG A   4      12.911 110.463  25.821  0.00  0.00    +0.241 C 
ATOM     97  O   ARG A   4      11.732 110.103  25.856  0.00  0.00    -0.273 OA
ATOM     98  N   ALA A   5      13.273 111.691  25.472  0.00  0.00    -0.297 N 
ATOM     99  H   ALA A   5      14.279 111.954  25.468  0.00  0.00    +0.150 HD
BRANCH  96 100
ATOM    100  CA  ARG A   4      14.028 109.501  26.203  0.00  0.00    +0.149 C 
BRANCH 100 102
ATOM    101  C   ALA A   3      15.237 109.429  24.099  0.00  0.00    +0.241 C 
ATOM    102  N   ARG A   4      15.227 109.705  25.400  0.00  0.00    -0.297 N 
ATOM    103  H   ARG A   4      16.089 110.072  25.852  0.00  0.00    +0.150 HD
ATOM    104  O   ALA A   3      14.247 109.004  23.508  0.00  0.00    -0.273 OA
BRANCH 101 105
ATOM    105  CA  ALA A   3      16.560 109.669  23.348  0.00  0.00    +0.149 C 
ATOM    106  CB  ALA A   3      17.547 108.530  23.646  0.00  0.00    +0.031 C 
BRANCH 105 108
ATOM    107  C   ARG A   2      16.462 112.095  23.552  0.00  0.00    +0.241 C 
ATOM    108  N   ALA A   3      17.124 110.954  23.762  0.00  0.00    -0.297 N 
ATOM    109  H   ALA A   3      18.054 110.979  24.227  0.00  0.00    +0.150 HD
ATOM    110  O   ARG A   2      15.359 112.135  22.972  0.00  0.00    -0.273 OA
BRANCH 107 111
ATOM    111  CA  ARG A   2      17.130 113.386  24.042  0.00  0.00    +0.149 C 
BRANCH 111 114
ATOM    112  C   LYS A   1      17.069 113.002  26.436  0.00  0.00    +0.238 C 
ATOM    113  O   LYS A   1      15.843 112.899  26.429  0.00  0.00    -0.274 OA
ATOM    114  N   ARG A   2      17.771 113.232  25.333  0.00  0.00    -0.297 N 
ATOM    115  H   ARG A   2      18.807 113.303  25.397  0.00  0.00    +0.150 HD
BRANCH 112 116
ATOM    116  CA  LYS A   1      17.872 112.859  27.732  0.00  0.00    +0.145 C 
BRANCH 116 117
ATOM    117  N   LYS A   1      19.019 111.978  27.514  0.00  0.00    -0.238 NA
ATOM    118  H   LYS A   1      19.976 112.307  27.754  0.00  0.00    +0.142 HD
ENDBRANCH 116 117
BRANCH 116 119
ATOM    119  CB  LYS A   1      18.361 114.234  28.182  0.00  0.00    +0.026 C 
BRANCH 119 120
ATOM    120  CG  LYS A   1      17.319 115.336  28.134  0.00  0.00    -0.000 C 
BRANCH 120 121
ATOM    121  CD  LYS A   1      17.962 116.701  27.844  0.00  0.00    -0.024 C 
BRANCH 121 122
ATOM    122  CE  LYS A   1      16.953 117.837  28.001  0.00  0.00    -0.086 C 
BRANCH 122 123
ATOM    123  NZ  LYS A   1      16.308 117.794  29.368  0.00  0.00    +0.380 N 
ATOM    124  HZ1 LYS A   1      17.041 117.891  30.099  0.00  0.00    -0.089 HD
ATOM    125  HZ2 LYS A   1      15.815 116.886  29.489  0.00  0.00    -0.089 HD
ATOM    126  HZ3 LYS A   1      15.626 118.575  29.453  0.00  0.00    -0.089 HD
ENDBRANCH 122 123
ENDBRANCH 121 122
ENDBRANCH 120 121
ENDBRANCH 119 120
ENDBRANCH 116 119
ENDBRANCH 112 116
ENDBRANCH 111 114
BRANCH 111 127
ATOM    127  CB  ARG A   2      18.150 113.890  23.021  0.00  0.00    +0.033 C 
BRANCH 127 128
ATOM    128  CG  ARG A   2      18.659 115.296  23.354  0.00  0.00    +0.045 C 
BRANCH 128 129
ATOM    129  CD  ARG A   2      19.735 115.739  22.393  0.00  0.00    +0.174 C 
BRANCH 129 130
ATOM    130  NE  ARG A   2      20.222 117.064  22.756  0.00  0.00    -0.265 N 
ATOM    131  HE  ARG A   2      19.701 117.590  23.486  0.00  0.00    +0.259 HD
ATOM    132  CZ  ARG A   2      21.289 117.645  22.215  0.00  0.00    +0.342 C 
ATOM    133  NH2 ARG A   2      21.649 118.847  22.617  0.00  0.00    -0.292 N 
ATOM    134 HH21 ARG A   2      21.100 119.335  23.353  0.00  0.00    +0.255 HD
ATOM    135 HH22 ARG A   2      22.482 119.307  22.198  0.00  0.00    +0.255 HD
ATOM    136  NH1 ARG A   2      21.995 117.026  21.279  0.00  0.00    -0.292 N 
ATOM    137 HH11 ARG A   2      21.716 116.076  20.960  0.00  0.00    +0.255 HD
ATOM    138 HH12 ARG A   2      22.828 117.490  20.863  0.00  0.00    +0.255 HD
ENDBRANCH 129 130
ENDBRANCH 128 129
ENDBRANCH 127 128
ENDBRANCH 111 127
ENDBRANCH 107 111
ENDBRANCH 105 108
ENDBRANCH 101 105
ENDBRANCH 100 102
BRANCH 100 139
ATOM    139  CB  ARG A   4      14.339 109.681  27.678  0.00  0.00    +0.033 C 
BRANCH 139 140
ATOM    140  CG  ARG A   4      15.178 108.595  28.247  0.00  0.00    +0.045 C 
BRANCH 140 141
ATOM    141  CD  ARG A   4      15.549 108.908  29.666  0.00  0.00    +0.174 C 
BRANCH 141 142
ATOM    142  NE  ARG A   4      15.572 107.676  30.435  0.00  0.00    -0.265 N 
ATOM    143  CZ  ARG A   4      16.516 107.364  31.311  0.00  0.00    +0.342 C 
ATOM    144  NH2 ARG A   4      16.468 106.196  31.940  0.00  0.00    -0.292 N 
ATOM    145 HH21 ARG A   4      17.206 105.945  32.629  0.00  0.00    +0.255 HD
ATOM    146 HH22 ARG A   4      15.692 105.531  31.744  0.00  0.00    +0.255 HD
ATOM    147  NH1 ARG A   4      17.521 108.209  31.531  0.00  0.00    -0.292 N 
ATOM    148 HH11 ARG A   4      18.263 107.967  32.218  0.00  0.00    +0.255 HD
ATOM    149 HH12 ARG A   4      17.564 109.111  31.016  0.00  0.00    +0.255 HD
ATOM    150  HE  ARG A   4      14.799 106.996  30.289  0.00  0.00    +0.259 HD
ENDBRANCH 141 142
ENDBRANCH 140 141
ENDBRANCH 139 140
ENDBRANCH 100 139
ENDBRANCH  96 100
ENDBRANCH  94  98
ENDBRANCH  90  94
ENDBRANCH  89  92
BRANCH  89 151
ATOM    151  CB  ARG A   6      13.061 110.521  20.834  0.00  0.00    +0.033 C 
BRANCH 151 152
ATOM    152  CG  ARG A   6      12.586 109.982  19.511  0.00  0.00    +0.045 C 
BRANCH 152 153
ATOM    153  CD  ARG A   6      13.726 109.441  18.683  0.00  0.00    +0.174 C 
BRANCH 153 154
ATOM    154  NE  ARG A   6      14.547 108.520  19.460  0.00  0.00    -0.265 N 
ATOM    155  HE  ARG A   6      14.182 108.185  20.375  0.00  0.00    +0.259 HD
ATOM    156  CZ  ARG A   6      15.736 108.087  19.060  0.00  0.00    +0.342 C 
ATOM    157  NH2 ARG A   6      16.452 107.254  19.812  0.00  0.00    -0.292 N 
ATOM    158 HH21 ARG A   6      16.081 106.932  20.729  0.00  0.00    +0.255 HD
ATOM    159 HH22 ARG A   6      17.382 106.925  19.483  0.00  0.00    +0.255 HD
ATOM    160  NH1 ARG A   6      16.208 108.503  17.897  0.00  0.00    -0.292 N 
ATOM    161 HH11 ARG A   6      17.138 108.175  17.566  0.00  0.00    +0.255 HD
ATOM    162 HH12 ARG A   6      15.649 109.158  17.313  0.00  0.00    +0.255 HD
ENDBRANCH 153 154
ENDBRANCH 152 153
ENDBRANCH 151 152
ENDBRANCH  89 151
ENDBRANCH  85  89
ENDBRANCH  84  86
ENDBRANCH  80  84
ENDBRANCH   1  82
BRANCH   1 163
ATOM    163  CB  GLU A   8       9.996 103.003  23.562  0.00  0.00    +0.041 C 
BRANCH 163 164
ATOM    164  CG  GLU A   8       8.511 103.084  23.871  0.00  0.00    +0.116 C 
BRANCH 164 165
ATOM    165  CD  GLU A   8       8.248 103.116  25.353  0.00  0.00    +0.365 C 
ATOM    166  OE2 GLU A   8       8.843 102.278  26.073  0.00  0.00    -0.246 OA
ATOM    167  OE1 GLU A   8       7.452 103.976  25.799  0.00  0.00    -0.246 OA
ENDBRANCH 164 165
ENDBRANCH 163 164
ENDBRANCH   1 163
TORSDOF 69
REMARK  Name = ../refined-set-2016/4tmk/4tmk_pocket.pdb
REMARK  286 active torsions:
REMARK  status: ('A' for Active; 'I' for Inactive)
REMARK    1  A    between atoms: _1  and  _3
REMARK    2  A    between atoms: _3  and  _4
REMARK    3  A    between atoms: _3  and  _6
REMARK    4  A    between atoms: _6  and  _7
REMARK    5  A    between atoms: _10  and  _12
REMARK    6  A    between atoms: _12  and  _13
REMARK    7  A    between atoms: _12  and  _15
REMARK    8  A    between atoms: _15  and  _16
REMARK    9  A    between atoms: _16  and  _17
REMARK   10  A    between atoms: _20  and  _22
REMARK   11  A    between atoms: _22  and  _23
REMARK   12  A    between atoms: _25  and  _27
REMARK   13  A    between atoms: _27  and  _28
REMARK   14  A    between atoms: _27  and  _30
REMARK   15  A    between atoms: _30  and  _31
REMARK   16  A    between atoms: _34  and  _36
REMARK   17  A    between atoms: _36  and  _37
REMARK   18  A    between atoms: _36  and  _39
REMARK   19  A    between atoms: _39  and  _40
REMARK   20  A    between atoms: _40  and  _41
REMARK   21  A    between atoms: _44  and  _46
REMARK   22  A    between atoms: _46  and  _47
REMARK   23  A    between atoms: _49  and  _51
REMARK   24  A    between atoms: _51  and  _52
REMARK   25  A    between atoms: _55  and  _57
REMARK   26  A    between atoms: _57  and  _58
REMARK   27  A    between atoms: _60  and  _62
REMARK   28  A    between atoms: _62  and  _63
REMARK   29  A    between atoms: _62  and  _65
REMARK   30  A    between atoms: _65  and  _66
REMARK   31  A    between atoms: _66  and  _67
REMARK   32  A    between atoms: _67  and  _68
REMARK   33  A    between atoms: _68  and  _69
REMARK   34  A    between atoms: _73  and  _75
REMARK   35  A    between atoms: _75  and  _76
REMARK   36  A    between atoms: _75  and  _78
REMARK   37  A    between atoms: _78  and  _79
REMARK   38  A    between atoms: _82  and  _84
REMARK   39  A    between atoms: _84  and  _85
REMARK   40  A    between atoms: _84  and  _87
REMARK   41  A    between atoms: _87  and  _88
REMARK   42  A    between atoms: _91  and  _93
REMARK   43  A    between atoms: _93  and  _94
REMARK   44  A    between atoms: _97  and  _99
REMARK   45  A    between atoms: _99  and  _100
REMARK   46  A    between atoms: _99  and  _102
REMARK   47  A    between atoms: _102  and  _103
REMARK   48  A    between atoms: _103  and  _104
REMARK   49  A    between atoms: _104  and  _105
REMARK   50  A    between atoms: _114  and  _116
REMARK   51  A    between atoms: _116  and  _117
REMARK   52  A    between atoms: _116  and  _119
REMARK   53  A    between atoms: _119  and  _120
REMARK   54  A    between atoms: _125  and  _127
REMARK   55  A    between atoms: _127  and  _128
REMARK   56  A    between atoms: _127  and  _130
REMARK   57  A    between atoms: _130  and  _131
REMARK   58  A    between atoms: _131  and  _132
REMARK   59  A    between atoms: _132  and  _133
REMARK   60  A    between atoms: _142  and  _144
REMARK   61  A    between atoms: _144  and  _145
REMARK   62  A    between atoms: _144  and  _147
REMARK   63  A    between atoms: _147  and  _148
REMARK   64  A    between atoms: _148  and  _149
REMARK   65  A    between atoms: _153  and  _154
REMARK   66  A    between atoms: _159  and  _161
REMARK   67  A    between atoms: _161  and  _162
REMARK   68  A    between atoms: _164  and  _166
REMARK   69  A    between atoms: _166  and  _167
REMARK   70  A    between atoms: _166  and  _169
REMARK   71  A    between atoms: _169  and  _170
REMARK   72  A    between atoms: _170  and  _171
REMARK   73  A    between atoms: _171  and  _172
REMARK   74  A    between atoms: _181  and  _183
REMARK   75  A    between atoms: _183  and  _184
REMARK   76  A    between atoms: _183  and  _186
REMARK   77  A    between atoms: _186  and  _187
REMARK   78  A    between atoms: _190  and  _192
REMARK   79  A    between atoms: _192  and  _193
REMARK   80  A    between atoms: _192  and  _195
REMARK   81  A    between atoms: _195  and  _196
REMARK   82  A    between atoms: _199  and  _201
REMARK   83  A    between atoms: _201  and  _202
REMARK   84  A    between atoms: _201  and  _204
REMARK   85  A    between atoms: _204  and  _205
REMARK   86  A    between atoms: _205  and  _206
REMARK   87  A    between atoms: _209  and  _211
REMARK   88  A    between atoms: _211  and  _212
REMARK   89  A    between atoms: _211  and  _214
REMARK   90  A    between atoms: _217  and  _219
REMARK   91  A    between atoms: _219  and  _220
REMARK   92  A    between atoms: _219  and  _222
REMARK   93  A    between atoms: _222  and  _223
REMARK   94  A    between atoms: _223  and  _224
REMARK   95  A    between atoms: _226  and  _228
REMARK   96  A    between atoms: _228  and  _229
REMARK   97  A    between atoms: _228  and  _231
REMARK   98  A    between atoms: _231  and  _232
REMARK   99  A    between atoms: _238  and  _240
REMARK  100  A    between atoms: _240  and  _241
REMARK  101  A    between atoms: _240  and  _243
REMARK  102  A    between atoms: _243  and  _244
REMARK  103  A    between atoms: _249  and  _250
REMARK  104  A    between atoms: _252  and  _254
REMARK  105  A    between atoms: _254  and  _255
REMARK  106  A    between atoms: _258  and  _260
REMARK  107  A    between atoms: _260  and  _261
REMARK  108  A    between atoms: _260  and  _263
REMARK  109  A    between atoms: _263  and  _264
REMARK  110  A    between atoms: _264  and  _265
REMARK  111  A    between atoms: _265  and  _266
REMARK  112  A    between atoms: _275  and  _277
REMARK  113  A    between atoms: _277  and  _278
REMARK  114  A    between atoms: _277  and  _280
REMARK  115  A    between atoms: _280  and  _281
REMARK  116  A    between atoms: _284  and  _286
REMARK  117  A    between atoms: _286  and  _287
REMARK  118  A    between atoms: _286  and  _289
REMARK  119  A    between atoms: _289  and  _290
REMARK  120  A    between atoms: _290  and  _291
REMARK  121  A    between atoms: _291  and  _292
REMARK  122  A    between atoms: _301  and  _303
REMARK  123  A    between atoms: _303  and  _304
REMARK  124  A    between atoms: _303  and  _306
REMARK  125  A    between atoms: _306  and  _307
REMARK  126  A    between atoms: _312  and  _314
REMARK  127  A    between atoms: _314  and  _315
REMARK  128  A    between atoms: _314  and  _317
REMARK  129  A    between atoms: _317  and  _318
REMARK  130  A    between atoms: _321  and  _323
REMARK  131  A    between atoms: _323  and  _324
REMARK  132  A    between atoms: _323  and  _326
REMARK  133  A    between atoms: _326  and  _327
REMARK  134  A    between atoms: _330  and  _332
REMARK  135  A    between atoms: _332  and  _333
REMARK  136  A    between atoms: _332  and  _335
REMARK  137  A    between atoms: _335  and  _336
REMARK  138  A    between atoms: _338  and  _340
REMARK  139  A    between atoms: _340  and  _341
REMARK  140  A    between atoms: _340  and  _343
REMARK  141  A    between atoms: _343  and  _344
REMARK  142  A    between atoms: _347  and  _349
REMARK  143  A    between atoms: _349  and  _350
REMARK  144  A    between atoms: _349  and  _352
REMARK  145  A    between atoms: _352  and  _353
REMARK  146  A    between atoms: _353  and  _354
REMARK  147  A    between atoms: _359  and  _361
REMARK  148  A    between atoms: _361  and  _362
REMARK  149  A    between atoms: _365  and  _367
REMARK  150  A    between atoms: _367  and  _368
REMARK  151  A    between atoms: _367  and  _370
REMARK  152  A    between atoms: _370  and  _371
REMARK  153  A    between atoms: _376  and  _377
REMARK  154  A    between atoms: _379  and  _381
REMARK  155  A    between atoms: _381  and  _382
REMARK  156  A    between atoms: _381  and  _384
REMARK  157  A    between atoms: _384  and  _385
REMARK  158  A    between atoms: _385  and  _386
REMARK  159  A    between atoms: _391  and  _393
REMARK  160  A    between atoms: _393  and  _394
REMARK  161  A    between atoms: _396  and  _398
REMARK  162  A    between atoms: _398  and  _399
REMARK  163  A    between atoms: _401  and  _403
REMARK  164  A    between atoms: _403  and  _404
REMARK  165  A    between atoms: _403  and  _406
REMARK  166  A    between atoms: _406  and  _407
REMARK  167  A    between atoms: _407  and  _408
REMARK  168  A    between atoms: _408  and  _409
REMARK  169  A    between atoms: _418  and  _420
REMARK  170  A    between atoms: _420  and  _421
REMARK  171  A    between atoms: _420  and  _423
REMARK  172  A    between atoms: _423  and  _424
REMARK  173  A    between atoms: _427  and  _429
REMARK  174  A    between atoms: _429  and  _430
REMARK  175  A    between atoms: _429  and  _432
REMARK  176  A    between atoms: _435  and  _437
REMARK  177  A    between atoms: _437  and  _438
REMARK  178  A    between atoms: _437  and  _440
REMARK  179  A    between atoms: _443  and  _445
REMARK  180  A    between atoms: _445  and  _446
REMARK  181  A    between atoms: _448  and  _450
REMARK  182  A    between atoms: _450  and  _451
REMARK  183  A    between atoms: _450  and  _453
REMARK  184  A    between atoms: _453  and  _454
REMARK  185  A    between atoms: _454  and  _455
REMARK  186  A    between atoms: _455  and  _456
REMARK  187  A    between atoms: _456  and  _457
REMARK  188  A    between atoms: _461  and  _463
REMARK  189  A    between atoms: _463  and  _464
REMARK  190  A    between atoms: _463  and  _466
REMARK  191  A    between atoms: _466  and  _467
REMARK  192  A    between atoms: _467  and  _468
REMARK  193  A    between atoms: _468  and  _469
REMARK  194  A    between atoms: _478  and  _480
REMARK  195  A    between atoms: _480  and  _481
REMARK  196  A    between atoms: _484  and  _486
REMARK  197  A    between atoms: _486  and  _487
REMARK  198  A    between atoms: _486  and  _489
REMARK  199  A    between atoms: _489  and  _490
REMARK  200  A    between atoms: _490  and  _491
REMARK  201  A    between atoms: _491  and  _492
REMARK  202  A    between atoms: _501  and  _503
REMARK  203  A    between atoms: _503  and  _504
REMARK  204  A    between atoms: _507  and  _509
REMARK  205  A    between atoms: _509  and  _510
REMARK  206  A    between atoms: _509  and  _512
REMARK  207  A    between atoms: _512  and  _513
REMARK  208  A    between atoms: _513  and  _514
REMARK  209  A    between atoms: _514  and  _515
REMARK  210  A    between atoms: _524  and  _526
REMARK  211  A    between atoms: _526  and  _527
REMARK  212  A    between atoms: _529  and  _531
REMARK  213  A    between atoms: _531  and  _532
REMARK  214  A    between atoms: _531  and  _534
REMARK  215  A    between atoms: _534  and  _535
REMARK  216  A    between atoms: _535  and  _536
REMARK  217  A    between atoms: _539  and  _541
REMARK  218  A    between atoms: _541  and  _542
REMARK  219  A    between atoms: _541  and  _544
REMARK  220  A    between atoms: _544  and  _545
REMARK  221  A    between atoms: _548  and  _550
REMARK  222  A    between atoms: _550  and  _551
REMARK  223  A    between atoms: _550  and  _553
REMARK  224  A    between atoms: _553  and  _554
REMARK  225  A    between atoms: _557  and  _559
REMARK  226  A    between atoms: _559  and  _560
REMARK  227  A    between atoms: _559  and  _562
REMARK  228  A    between atoms: _562  and  _563
REMARK  229  A    between atoms: _563  and  _564
REMARK  230  A    between atoms: _564  and  _565
REMARK  231  A    between atoms: _574  and  _576
REMARK  232  A    between atoms: _576  and  _577
REMARK  233  A    between atoms: _576  and  _579
REMARK  234  A    between atoms: _579  and  _580
REMARK  235  A    between atoms: _583  and  _585
REMARK  236  A    between atoms: _585  and  _586
REMARK  237  A    between atoms: _585  and  _588
REMARK  238  A    between atoms: _588  and  _589
REMARK  239  A    between atoms: _589  and  _590
REMARK  240  A    between atoms: _593  and  _595
REMARK  241  A    between atoms: _595  and  _596
REMARK  242  A    between atoms: _595  and  _598
REMARK  243  A    between atoms: _598  and  _599
REMARK  244  A    between atoms: _599  and  _600
REMARK  245  A    between atoms: _605  and  _607
REMARK  246  A    between atoms: _607  and  _608
REMARK  247  A    between atoms: _607  and  _610
REMARK  248  A    between atoms: _610  and  _611
REMARK  249  A    between atoms: _611  and  _612
REMARK  250  A    between atoms: _615  and  _617
REMARK  251  A    between atoms: _617  and  _618
REMARK  252  A    between atoms: _617  and  _620
REMARK  253  A    between atoms: _620  and  _621
REMARK  254  A    between atoms: _627  and  _629
REMARK  255  A    between atoms: _629  and  _630
REMARK  256  A    between atoms: _629  and  _632
REMARK  257  A    between atoms: _632  and  _633
REMARK  258  A    between atoms: _639  and  _641
REMARK  259  A    between atoms: _641  and  _642
REMARK  260  A    between atoms: _641  and  _644
REMARK  261  A    between atoms: _644  and  _645
REMARK  262  A    between atoms: _648  and  _650
REMARK  263  A    between atoms: _650  and  _651
REMARK  264  A    between atoms: _650  and  _653
REMARK  265  A    between atoms: _653  and  _654
REMARK  266  A    between atoms: _659  and  _660
REMARK  267  A    between atoms: _662  and  _664
REMARK  268  A    between atoms: _664  and  _665
REMARK  269  A    between atoms: _668  and  _670
REMARK  270  A    between atoms: _670  and  _671
REMARK  271  A    between atoms: _670  and  _673
REMARK  272  A    between atoms: _673  and  _674
REMARK  273  A    between atoms: _674  and  _675
REMARK  274  A    between atoms: _681  and  _682
REMARK  275  A    between atoms: _687  and  _689
REMARK  276  A    between atoms: _689  and  _690
REMARK  277  A    between atoms: _689  and  _692
REMARK  278  A    between atoms: _692  and  _693
REMARK  279  A    between atoms: _696  and  _698
REMARK  280  A    between atoms: _698  and  _699
REMARK  281  A    between atoms: _698  and  _701
REMARK  282  A    between atoms: _701  and  _702
REMARK  283  A    between atoms: _702  and  _703
REMARK  284  A    between atoms: _706  and  _708
REMARK  285  A    between atoms: _708  and  _709
REMARK  286  A    between atoms: _708  and  _711
REMARK                            x       y       z     vdW  Elec       q    Type
REMARK                         _______ _______ _______ _____ _____    ______ ____
ROOT
ATOM      1  C   PHE A   1      28.345 103.161  28.114  0.00  0.00    +0.239 C 
ATOM      2  N   PHE A   2      27.571 104.237  28.221  0.00  0.00    -0.298 N 
ATOM      3  H   PHE A   2      26.900 104.309  29.013  0.00  0.00    +0.150 HD
ATOM      4  O   PHE A   1      29.170 103.028  27.205  0.00  0.00    -0.274 OA
ENDROOT
BRANCH   1   5
ATOM      5  CA  PHE A   1      28.169 102.083  29.181  0.00  0.00    +0.149 C 
BRANCH   5   6
ATOM      6  N   PHE A   1      28.097 102.702  30.504  0.00  0.00    -0.238 NA
ATOM      7  H   PHE A   1      27.214 102.645  31.050  0.00  0.00    +0.142 HD
ENDBRANCH   5   6
BRANCH   5   8
ATOM      8  CB  PHE A   1      26.898 101.250  28.873  0.00  0.00    +0.053 C 
BRANCH   8   9
ATOM      9  CG  PHE A   1      26.844 100.731  27.452  0.00  0.00    -0.020 A 
ATOM     10  CD2 PHE A   1      27.310  99.447  27.134  0.00  0.00    -0.004 A 
ATOM     11  CE2 PHE A   1      27.297  98.980  25.803  0.00  0.00    -0.000 A 
ATOM     12  CZ  PHE A   1      26.816  99.798  24.791  0.00  0.00    -0.000 A 
ATOM     13  CE1 PHE A   1      26.349 101.082  25.110  0.00  0.00    -0.000 A 
ATOM     14  CD1 PHE A   1      26.365 101.533  26.425  0.00  0.00    -0.004 A 
ENDBRANCH   8   9
ENDBRANCH   5   8
ENDBRANCH   1   5
BRANCH   2  15
ATOM     15  CA  PHE A   2      27.649 105.324  27.239  0.00  0.00    +0.141 C 
BRANCH  15  16
ATOM     16  C   PHE A   2      28.941 106.119  27.401  0.00  0.00    +0.227 C 
ATOM     17  O   PHE A   2      29.511 106.602  26.421  0.00  0.00    -0.286 OA
ENDBRANCH  15  16
BRANCH  15  18
ATOM     18  CB  PHE A   2      26.435 106.245  27.390  0.00  0.00    +0.054 C 
BRANCH  18  19
ATOM     19  CG  PHE A   2      25.143 105.571  27.073  0.00  0.00    -0.020 A 
ATOM     20  CD2 PHE A   2      24.155 105.462  28.029  0.00  0.00    -0.004 A 
ATOM     21  CE2 PHE A   2      22.972 104.823  27.729  0.00  0.00    -0.000 A 
ATOM     22  CZ  PHE A   2      22.776 104.289  26.467  0.00  0.00    -0.000 A 
ATOM     23  CE1 PHE A   2      23.751 104.391  25.509  0.00  0.00    -0.000 A 
ATOM     24  CD1 PHE A   2      24.927 105.029  25.811  0.00  0.00    -0.004 A 
ENDBRANCH  18  19
ENDBRANCH  15  18
ENDBRANCH   2  15
TORSDOF 8
REMARK  Name = ../refined-set-2016/4tmk/4tmk_pocket.pdb
REMARK  286 active torsions:
REMARK  status: ('A' for Active; 'I' for Inactive)
REMARK    1  A    between atoms: _1  and  _3
REMARK    2  A    between atoms: _3  and  _4
REMARK    3  A    between atoms: _3  and  _6
REMARK    4  A    between atoms: _6  and  _7
REMARK    5  A    between atoms: _10  and  _12
REMARK    6  A    between atoms: _12  and  _13
REMARK    7  A    between atoms: _12  and  _15
REMARK    8  A    between atoms: _15  and  _16
REMARK    9  A    between atoms: _16  and  _17
REMARK   10  A    between atoms: _20  and  _22
REMARK   11  A    between atoms: _22  and  _23
REMARK   12  A    between atoms: _25  and  _27
REMARK   13  A    between atoms: _27  and  _28
REMARK   14  A    between atoms: _27  and  _30
REMARK   15  A    between atoms: _30  and  _31
REMARK   16  A    between atoms: _34  and  _36
REMARK   17  A    between atoms: _36  and  _37
REMARK   18  A    between atoms: _36  and  _39
REMARK   19  A    between atoms: _39  and  _40
REMARK   20  A    between atoms: _40  and  _41
REMARK   21  A    between atoms: _44  and  _46
REMARK   22  A    between atoms: _46  and  _47
REMARK   23  A    between atoms: _49  and  _51
REMARK   24  A    between atoms: _51  and  _52
REMARK   25  A    between atoms: _55  and  _57
REMARK   26  A    between atoms: _57  and  _58
REMARK   27  A    between atoms: _60  and  _62
REMARK   28  A    between atoms: _62  and  _63
REMARK   29  A    between atoms: _62  and  _65
REMARK   30  A    between atoms: _65  and  _66
REMARK   31  A    between atoms: _66  and  _67
REMARK   32  A    between atoms: _67  and  _68
REMARK   33  A    between atoms: _68  and  _69
REMARK   34  A    between atoms: _73  and  _75
REMARK   35  A    between atoms: _75  and  _76
REMARK   36  A    between atoms: _75  and  _78
REMARK   37  A    between atoms: _78  and  _79
REMARK   38  A    between atoms: _82  and  _84
REMARK   39  A    between atoms: _84  and  _85
REMARK   40  A    between atoms: _84  and  _87
REMARK   41  A    between atoms: _87  and  _88
REMARK   42  A    between atoms: _91  and  _93
REMARK   43  A    between atoms: _93  and  _94
REMARK   44  A    between atoms: _97  and  _99
REMARK   45  A    between atoms: _99  and  _100
REMARK   46  A    between atoms: _99  and  _102
REMARK   47  A    between atoms: _102  and  _103
REMARK   48  A    between atoms: _103  and  _104
REMARK   49  A    between atoms: _104  and  _105
REMARK   50  A    between atoms: _114  and  _116
REMARK   51  A    between atoms: _116  and  _117
REMARK   52  A    between atoms: _116  and  _119
REMARK   53  A    between atoms: _119  and  _120
REMARK   54  A    between atoms: _125  and  _127
REMARK   55  A    between atoms: _127  and  _128
REMARK   56  A    between atoms: _127  and  _130
REMARK   57  A    between atoms: _130  and  _131
REMARK   58  A    between atoms: _131  and  _132
REMARK   59  A    between atoms: _132  and  _133
REMARK   60  A    between atoms: _142  and  _144
REMARK   61  A    between atoms: _144  and  _145
REMARK   62  A    between atoms: _144  and  _147
REMARK   63  A    between atoms: _147  and  _148
REMARK   64  A    between atoms: _148  and  _149
REMARK   65  A    between atoms: _153  and  _154
REMARK   66  A    between atoms: _159  and  _161
REMARK   67  A    between atoms: _161  and  _162
REMARK   68  A    between atoms: _164  and  _166
REMARK   69  A    between atoms: _166  and  _167
REMARK   70  A    between atoms: _166  and  _169
REMARK   71  A    between atoms: _169  and  _170
REMARK   72  A    between atoms: _170  and  _171
REMARK   73  A    between atoms: _171  and  _172
REMARK   74  A    between atoms: _181  and  _183
REMARK   75  A    between atoms: _183  and  _184
REMARK   76  A    between atoms: _183  and  _186
REMARK   77  A    between atoms: _186  and  _187
REMARK   78  A    between atoms: _190  and  _192
REMARK   79  A    between atoms: _192  and  _193
REMARK   80  A    between atoms: _192  and  _195
REMARK   81  A    between atoms: _195  and  _196
REMARK   82  A    between atoms: _199  and  _201
REMARK   83  A    between atoms: _201  and  _202
REMARK   84  A    between atoms: _201  and  _204
REMARK   85  A    between atoms: _204  and  _205
REMARK   86  A    between atoms: _205  and  _206
REMARK   87  A    between atoms: _209  and  _211
REMARK   88  A    between atoms: _211  and  _212
REMARK   89  A    between atoms: _211  and  _214
REMARK   90  A    between atoms: _217  and  _219
REMARK   91  A    between atoms: _219  and  _220
REMARK   92  A    between atoms: _219  and  _222
REMARK   93  A    between atoms: _222  and  _223
REMARK   94  A    between atoms: _223  and  _224
REMARK   95  A    between atoms: _226  and  _228
REMARK   96  A    between atoms: _228  and  _229
REMARK   97  A    between atoms: _228  and  _231
REMARK   98  A    between atoms: _231  and  _232
REMARK   99  A    between atoms: _238  and  _240
REMARK  100  A    between atoms: _240  and  _241
REMARK  101  A    between atoms: _240  and  _243
REMARK  102  A    between atoms: _243  and  _244
REMARK  103  A    between atoms: _249  and  _250
REMARK  104  A    between atoms: _252  and  _254
REMARK  105  A    between atoms: _254  and  _255
REMARK  106  A    between atoms: _258  and  _260
REMARK  107  A    between atoms: _260  and  _261
REMARK  108  A    between atoms: _260  and  _263
REMARK  109  A    between atoms: _263  and  _264
REMARK  110  A    between atoms: _264  and  _265
REMARK  111  A    between atoms: _265  and  _266
REMARK  112  A    between atoms: _275  and  _277
REMARK  113  A    between atoms: _277  and  _278
REMARK  114  A    between atoms: _277  and  _280
REMARK  115  A    between atoms: _280  and  _281
REMARK  116  A    between atoms: _284  and  _286
REMARK  117  A    between atoms: _286  and  _287
REMARK  118  A    between atoms: _286  and  _289
REMARK  119  A    between atoms: _289  and  _290
REMARK  120  A    between atoms: _290  and  _291
REMARK  121  A    between atoms: _291  and  _292
REMARK  122  A    between atoms: _301  and  _303
REMARK  123  A    between atoms: _303  and  _304
REMARK  124  A    between atoms: _303  and  _306
REMARK  125  A    between atoms: _306  and  _307
REMARK  126  A    between atoms: _312  and  _314
REMARK  127  A    between atoms: _314  and  _315
REMARK  128  A    between atoms: _314  and  _317
REMARK  129  A    between atoms: _317  and  _318
REMARK  130  A    between atoms: _321  and  _323
REMARK  131  A    between atoms: _323  and  _324
REMARK  132  A    between atoms: _323  and  _326
REMARK  133  A    between atoms: _326  and  _327
REMARK  134  A    between atoms: _330  and  _332
REMARK  135  A    between atoms: _332  and  _333
REMARK  136  A    between atoms: _332  and  _335
REMARK  137  A    between atoms: _335  and  _336
REMARK  138  A    between atoms: _338  and  _340
REMARK  139  A    between atoms: _340  and  _341
REMARK  140  A    between atoms: _340  and  _343
REMARK  141  A    between atoms: _343  and  _344
REMARK  142  A    between atoms: _347  and  _349
REMARK  143  A    between atoms: _349  and  _350
REMARK  144  A    between atoms: _349  and  _352
REMARK  145  A    between atoms: _352  and  _353
REMARK  146  A    between atoms: _353  and  _354
REMARK  147  A    between atoms: _359  and  _361
REMARK  148  A    between atoms: _361  and  _362
REMARK  149  A    between atoms: _365  and  _367
REMARK  150  A    between atoms: _367  and  _368
REMARK  151  A    between atoms: _367  and  _370
REMARK  152  A    between atoms: _370  and  _371
REMARK  153  A    between atoms: _376  and  _377
REMARK  154  A    between atoms: _379  and  _381
REMARK  155  A    between atoms: _381  and  _382
REMARK  156  A    between atoms: _381  and  _384
REMARK  157  A    between atoms: _384  and  _385
REMARK  158  A    between atoms: _385  and  _386
REMARK  159  A    between atoms: _391  and  _393
REMARK  160  A    between atoms: _393  and  _394
REMARK  161  A    between atoms: _396  and  _398
REMARK  162  A    between atoms: _398  and  _399
REMARK  163  A    between atoms: _401  and  _403
REMARK  164  A    between atoms: _403  and  _404
REMARK  165  A    between atoms: _403  and  _406
REMARK  166  A    between atoms: _406  and  _407
REMARK  167  A    between atoms: _407  and  _408
REMARK  168  A    between atoms: _408  and  _409
REMARK  169  A    between atoms: _418  and  _420
REMARK  170  A    between atoms: _420  and  _421
REMARK  171  A    between atoms: _420  and  _423
REMARK  172  A    between atoms: _423  and  _424
REMARK  173  A    between atoms: _427  and  _429
REMARK  174  A    between atoms: _429  and  _430
REMARK  175  A    between atoms: _429  and  _432
REMARK  176  A    between atoms: _435  and  _437
REMARK  177  A    between atoms: _437  and  _438
REMARK  178  A    between atoms: _437  and  _440
REMARK  179  A    between atoms: _443  and  _445
REMARK  180  A    between atoms: _445  and  _446
REMARK  181  A    between atoms: _448  and  _450
REMARK  182  A    between atoms: _450  and  _451
REMARK  183  A    between atoms: _450  and  _453
REMARK  184  A    between atoms: _453  and  _454
REMARK  185  A    between atoms: _454  and  _455
REMARK  186  A    between atoms: _455  and  _456
REMARK  187  A    between atoms: _456  and  _457
REMARK  188  A    between atoms: _461  and  _463
REMARK  189  A    between atoms: _463  and  _464
REMARK  190  A    between atoms: _463  and  _466
REMARK  191  A    between atoms: _466  and  _467
REMARK  192  A    between atoms: _467  and  _468
REMARK  193  A    between atoms: _468  and  _469
REMARK  194  A    between atoms: _478  and  _480
REMARK  195  A    between atoms: _480  and  _481
REMARK  196  A    between atoms: _484  and  _486
REMARK  197  A    between atoms: _486  and  _487
REMARK  198  A    between atoms: _486  and  _489
REMARK  199  A    between atoms: _489  and  _490
REMARK  200  A    between atoms: _490  and  _491
REMARK  201  A    between atoms: _491  and  _492
REMARK  202  A    between atoms: _501  and  _503
REMARK  203  A    between atoms: _503  and  _504
REMARK  204  A    between atoms: _507  and  _509
REMARK  205  A    between atoms: _509  and  _510
REMARK  206  A    between atoms: _509  and  _512
REMARK  207  A    between atoms: _512  and  _513
REMARK  208  A    between atoms: _513  and  _514
REMARK  209  A    between atoms: _514  and  _515
REMARK  210  A    between atoms: _524  and  _526
REMARK  211  A    between atoms: _526  and  _527
REMARK  212  A    between atoms: _529  and  _531
REMARK  213  A    between atoms: _531  and  _532
REMARK  214  A    between atoms: _531  and  _534
REMARK  215  A    between atoms: _534  and  _535
REMARK  216  A    between atoms: _535  and  _536
REMARK  217  A    between atoms: _539  and  _541
REMARK  218  A    between atoms: _541  and  _542
REMARK  219  A    between atoms: _541  and  _544
REMARK  220  A    between atoms: _544  and  _545
REMARK  221  A    between atoms: _548  and  _550
REMARK  222  A    between atoms: _550  and  _551
REMARK  223  A    between atoms: _550  and  _553
REMARK  224  A    between atoms: _553  and  _554
REMARK  225  A    between atoms: _557  and  _559
REMARK  226  A    between atoms: _559  and  _560
REMARK  227  A    between atoms: _559  and  _562
REMARK  228  A    between atoms: _562  and  _563
REMARK  229  A    between atoms: _563  and  _564
REMARK  230  A    between atoms: _564  and  _565
REMARK  231  A    between atoms: _574  and  _576
REMARK  232  A    between atoms: _576  and  _577
REMARK  233  A    between atoms: _576  and  _579
REMARK  234  A    between atoms: _579  and  _580
REMARK  235  A    between atoms: _583  and  _585
REMARK  236  A    between atoms: _585  and  _586
REMARK  237  A    between atoms: _585  and  _588
REMARK  238  A    between atoms: _588  and  _589
REMARK  239  A    between atoms: _589  and  _590
REMARK  240  A    between atoms: _593  and  _595
REMARK  241  A    between atoms: _595  and  _596
REMARK  242  A    between atoms: _595  and  _598
REMARK  243  A    between atoms: _598  and  _599
REMARK  244  A    between atoms: _599  and  _600
REMARK  245  A    between atoms: _605  and  _607
REMARK  246  A    between atoms: _607  and  _608
REMARK  247  A    between atoms: _607  and  _610
REMARK  248  A    between atoms: _610  and  _611
REMARK  249  A    between atoms: _611  and  _612
REMARK  250  A    between atoms: _615  and  _617
REMARK  251  A    between atoms: _617  and  _618
REMARK  252  A    between atoms: _617  and  _620
REMARK  253  A    between atoms: _620  and  _621
REMARK  254  A    between atoms: _627  and  _629
REMARK  255  A    between atoms: _629  and  _630
REMARK  256  A    between atoms: _629  and  _632
REMARK  257  A    between atoms: _632  and  _633
REMARK  258  A    between atoms: _639  and  _641
REMARK  259  A    between atoms: _641  and  _642
REMARK  260  A    between atoms: _641  and  _644
REMARK  261  A    between atoms: _644  and  _645
REMARK  262  A    between atoms: _648  and  _650
REMARK  263  A    between atoms: _650  and  _651
REMARK  264  A    between atoms: _650  and  _653
REMARK  265  A    between atoms: _653  and  _654
REMARK  266  A    between atoms: _659  and  _660
REMARK  267  A    between atoms: _662  and  _664
REMARK  268  A    between atoms: _664  and  _665
REMARK  269  A    between atoms: _668  and  _670
REMARK  270  A    between atoms: _670  and  _671
REMARK  271  A    between atoms: _670  and  _673
REMARK  272  A    between atoms: _673  and  _674
REMARK  273  A    between atoms: _674  and  _675
REMARK  274  A    between atoms: _681  and  _682
REMARK  275  A    between atoms: _687  and  _689
REMARK  276  A    between atoms: _689  and  _690
REMARK  277  A    between atoms: _689  and  _692
REMARK  278  A    between atoms: _692  and  _693
REMARK  279  A    between atoms: _696  and  _698
REMARK  280  A    between atoms: _698  and  _699
REMARK  281  A    between atoms: _698  and  _701
REMARK  282  A    between atoms: _701  and  _702
REMARK  283  A    between atoms: _702  and  _703
REMARK  284  A    between atoms: _706  and  _708
REMARK  285  A    between atoms: _708  and  _709
REMARK  286  A    between atoms: _708  and  _711
REMARK                            x       y       z     vdW  Elec       q    Type
REMARK                         _______ _______ _______ _____ _____    ______ ____
ROOT
ATOM      1  CA  THR A   1      31.383 104.233  24.365  0.00  0.00    +0.160 C 
ENDROOT
BRANCH   1   2
ATOM      2  N   THR A   1      31.591 104.183  25.812  0.00  0.00    -0.237 NA
ATOM      3  H   THR A   1      30.767 104.145  26.445  0.00  0.00    +0.142 HD
ENDBRANCH   1   2
BRANCH   1   4
ATOM      4  CB  THR A   1      29.911 104.033  24.000  0.00  0.00    +0.134 C 
ATOM      5  CG2 THR A   1      29.726 104.210  22.525  0.00  0.00    +0.034 C 
BRANCH   4   6
ATOM      6  OG1 THR A   1      29.511 102.709  24.380  0.00  0.00    -0.383 OA
ATOM      7  HG1 THR A   1      29.632 102.596  25.356  0.00  0.00    +0.210 HD
ENDBRANCH   4   6
ENDBRANCH   1   4
BRANCH   1   8
ATOM      8  C   THR A   1      31.847 105.553  23.779  0.00  0.00    +0.227 C 
ATOM      9  O   THR A   1      32.477 105.576  22.730  0.00  0.00    -0.287 OA
ENDBRANCH   1   8
TORSDOF 4
REMARK  Name = ../refined-set-2016/4tmk/4tmk_pocket.pdb
REMARK  286 active torsions:
REMARK  status: ('A' for Active; 'I' for Inactive)
REMARK    1  A    between atoms: _1  and  _3
REMARK    2  A    between atoms: _3  and  _4
REMARK    3  A    between atoms: _3  and  _6
REMARK    4  A    between atoms: _6  and  _7
REMARK    5  A    between atoms: _10  and  _12
REMARK    6  A    between atoms: _12  and  _13
REMARK    7  A    between atoms: _12  and  _15
REMARK    8  A    between atoms: _15  and  _16
REMARK    9  A    between atoms: _16  and  _17
REMARK   10  A    between atoms: _20  and  _22
REMARK   11  A    between atoms: _22  and  _23
REMARK   12  A    between atoms: _25  and  _27
REMARK   13  A    between atoms: _27  and  _28
REMARK   14  A    between atoms: _27  and  _30
REMARK   15  A    between atoms: _30  and  _31
REMARK   16  A    between atoms: _34  and  _36
REMARK   17  A    between atoms: _36  and  _37
REMARK   18  A    between atoms: _36  and  _39
REMARK   19  A    between atoms: _39  and  _40
REMARK   20  A    between atoms: _40  and  _41
REMARK   21  A    between atoms: _44  and  _46
REMARK   22  A    between atoms: _46  and  _47
REMARK   23  A    between atoms: _49  and  _51
REMARK   24  A    between atoms: _51  and  _52
REMARK   25  A    between atoms: _55  and  _57
REMARK   26  A    between atoms: _57  and  _58
REMARK   27  A    between atoms: _60  and  _62
REMARK   28  A    between atoms: _62  and  _63
REMARK   29  A    between atoms: _62  and  _65
REMARK   30  A    between atoms: _65  and  _66
REMARK   31  A    between atoms: _66  and  _67
REMARK   32  A    between atoms: _67  and  _68
REMARK   33  A    between atoms: _68  and  _69
REMARK   34  A    between atoms: _73  and  _75
REMARK   35  A    between atoms: _75  and  _76
REMARK   36  A    between atoms: _75  and  _78
REMARK   37  A    between atoms: _78  and  _79
REMARK   38  A    between atoms: _82  and  _84
REMARK   39  A    between atoms: _84  and  _85
REMARK   40  A    between atoms: _84  and  _87
REMARK   41  A    between atoms: _87  and  _88
REMARK   42  A    between atoms: _91  and  _93
REMARK   43  A    between atoms: _93  and  _94
REMARK   44  A    between atoms: _97  and  _99
REMARK   45  A    between atoms: _99  and  _100
REMARK   46  A    between atoms: _99  and  _102
REMARK   47  A    between atoms: _102  and  _103
REMARK   48  A    between atoms: _103  and  _104
REMARK   49  A    between atoms: _104  and  _105
REMARK   50  A    between atoms: _114  and  _116
REMARK   51  A    between atoms: _116  and  _117
REMARK   52  A    between atoms: _116  and  _119
REMARK   53  A    between atoms: _119  and  _120
REMARK   54  A    between atoms: _125  and  _127
REMARK   55  A    between atoms: _127  and  _128
REMARK   56  A    between atoms: _127  and  _130
REMARK   57  A    between atoms: _130  and  _131
REMARK   58  A    between atoms: _131  and  _132
REMARK   59  A    between atoms: _132  and  _133
REMARK   60  A    between atoms: _142  and  _144
REMARK   61  A    between atoms: _144  and  _145
REMARK   62  A    between atoms: _144  and  _147
REMARK   63  A    between atoms: _147  and  _148
REMARK   64  A    between atoms: _148  and  _149
REMARK   65  A    between atoms: _153  and  _154
REMARK   66  A    between atoms: _159  and  _161
REMARK   67  A    between atoms: _161  and  _162
REMARK   68  A    between atoms: _164  and  _166
REMARK   69  A    between atoms: _166  and  _167
REMARK   70  A    between atoms: _166  and  _169
REMARK   71  A    between atoms: _169  and  _170
REMARK   72  A    between atoms: _170  and  _171
REMARK   73  A    between atoms: _171  and  _172
REMARK   74  A    between atoms: _181  and  _183
REMARK   75  A    between atoms: _183  and  _184
REMARK   76  A    between atoms: _183  and  _186
REMARK   77  A    between atoms: _186  and  _187
REMARK   78  A    between atoms: _190  and  _192
REMARK   79  A    between atoms: _192  and  _193
REMARK   80  A    between atoms: _192  and  _195
REMARK   81  A    between atoms: _195  and  _196
REMARK   82  A    between atoms: _199  and  _201
REMARK   83  A    between atoms: _201  and  _202
REMARK   84  A    between atoms: _201  and  _204
REMARK   85  A    between atoms: _204  and  _205
REMARK   86  A    between atoms: _205  and  _206
REMARK   87  A    between atoms: _209  and  _211
REMARK   88  A    between atoms: _211  and  _212
REMARK   89  A    between atoms: _211  and  _214
REMARK   90  A    between atoms: _217  and  _219
REMARK   91  A    between atoms: _219  and  _220
REMARK   92  A    between atoms: _219  and  _222
REMARK   93  A    between atoms: _222  and  _223
REMARK   94  A    between atoms: _223  and  _224
REMARK   95  A    between atoms: _226  and  _228
REMARK   96  A    between atoms: _228  and  _229
REMARK   97  A    between atoms: _228  and  _231
REMARK   98  A    between atoms: _231  and  _232
REMARK   99  A    between atoms: _238  and  _240
REMARK  100  A    between atoms: _240  and  _241
REMARK  101  A    between atoms: _240  and  _243
REMARK  102  A    between atoms: _243  and  _244
REMARK  103  A    between atoms: _249  and  _250
REMARK  104  A    between atoms: _252  and  _254
REMARK  105  A    between atoms: _254  and  _255
REMARK  106  A    between atoms: _258  and  _260
REMARK  107  A    between atoms: _260  and  _261
REMARK  108  A    between atoms: _260  and  _263
REMARK  109  A    between atoms: _263  and  _264
REMARK  110  A    between atoms: _264  and  _265
REMARK  111  A    between atoms: _265  and  _266
REMARK  112  A    between atoms: _275  and  _277
REMARK  113  A    between atoms: _277  and  _278
REMARK  114  A    between atoms: _277  and  _280
REMARK  115  A    between atoms: _280  and  _281
REMARK  116  A    between atoms: _284  and  _286
REMARK  117  A    between atoms: _286  and  _287
REMARK  118  A    between atoms: _286  and  _289
REMARK  119  A    between atoms: _289  and  _290
REMARK  120  A    between atoms: _290  and  _291
REMARK  121  A    between atoms: _291  and  _292
REMARK  122  A    between atoms: _301  and  _303
REMARK  123  A    between atoms: _303  and  _304
REMARK  124  A    between atoms: _303  and  _306
REMARK  125  A    between atoms: _306  and  _307
REMARK  126  A    between atoms: _312  and  _314
REMARK  127  A    between atoms: _314  and  _315
REMARK  128  A    between atoms: _314  and  _317
REMARK  129  A    between atoms: _317  and  _318
REMARK  130  A    between atoms: _321  and  _323
REMARK  131  A    between atoms: _323  and  _324
REMARK  132  A    between atoms: _323  and  _326
REMARK  133  A    between atoms: _326  and  _327
REMARK  134  A    between atoms: _330  and  _332
REMARK  135  A    between atoms: _332  and  _333
REMARK  136  A    between atoms: _332  and  _335
REMARK  137  A    between atoms: _335  and  _336
REMARK  138  A    between atoms: _338  and  _340
REMARK  139  A    between atoms: _340  and  _341
REMARK  140  A    between atoms: _340  and  _343
REMARK  141  A    between atoms: _343  and  _344
REMARK  142  A    between atoms: _347  and  _349
REMARK  143  A    between atoms: _349  and  _350
REMARK  144  A    between atoms: _349  and  _352
REMARK  145  A    between atoms: _352  and  _353
REMARK  146  A    between atoms: _353  and  _354
REMARK  147  A    between atoms: _359  and  _361
REMARK  148  A    between atoms: _361  and  _362
REMARK  149  A    between atoms: _365  and  _367
REMARK  150  A    between atoms: _367  and  _368
REMARK  151  A    between atoms: _367  and  _370
REMARK  152  A    between atoms: _370  and  _371
REMARK  153  A    between atoms: _376  and  _377
REMARK  154  A    between atoms: _379  and  _381
REMARK  155  A    between atoms: _381  and  _382
REMARK  156  A    between atoms: _381  and  _384
REMARK  157  A    between atoms: _384  and  _385
REMARK  158  A    between atoms: _385  and  _386
REMARK  159  A    between atoms: _391  and  _393
REMARK  160  A    between atoms: _393  and  _394
REMARK  161  A    between atoms: _396  and  _398
REMARK  162  A    between atoms: _398  and  _399
REMARK  163  A    between atoms: _401  and  _403
REMARK  164  A    between atoms: _403  and  _404
REMARK  165  A    between atoms: _403  and  _406
REMARK  166  A    between atoms: _406  and  _407
REMARK  167  A    between atoms: _407  and  _408
REMARK  168  A    between atoms: _408  and  _409
REMARK  169  A    between atoms: _418  and  _420
REMARK  170  A    between atoms: _420  and  _421
REMARK  171  A    between atoms: _420  and  _423
REMARK  172  A    between atoms: _423  and  _424
REMARK  173  A    between atoms: _427  and  _429
REMARK  174  A    between atoms: _429  and  _430
REMARK  175  A    between atoms: _429  and  _432
REMARK  176  A    between atoms: _435  and  _437
REMARK  177  A    between atoms: _437  and  _438
REMARK  178  A    between atoms: _437  and  _440
REMARK  179  A    between atoms: _443  and  _445
REMARK  180  A    between atoms: _445  and  _446
REMARK  181  A    between atoms: _448  and  _450
REMARK  182  A    between atoms: _450  and  _451
REMARK  183  A    between atoms: _450  and  _453
REMARK  184  A    between atoms: _453  and  _454
REMARK  185  A    between atoms: _454  and  _455
REMARK  186  A    between atoms: _455  and  _456
REMARK  187  A    between atoms: _456  and  _457
REMARK  188  A    between atoms: _461  and  _463
REMARK  189  A    between atoms: _463  and  _464
REMARK  190  A    between atoms: _463  and  _466
REMARK  191  A    between atoms: _466  and  _467
REMARK  192  A    between atoms: _467  and  _468
REMARK  193  A    between atoms: _468  and  _469
REMARK  194  A    between atoms: _478  and  _480
REMARK  195  A    between atoms: _480  and  _481
REMARK  196  A    between atoms: _484  and  _486
REMARK  197  A    between atoms: _486  and  _487
REMARK  198  A    between atoms: _486  and  _489
REMARK  199  A    between atoms: _489  and  _490
REMARK  200  A    between atoms: _490  and  _491
REMARK  201  A    between atoms: _491  and  _492
REMARK  202  A    between atoms: _501  and  _503
REMARK  203  A    between atoms: _503  and  _504
REMARK  204  A    between atoms: _507  and  _509
REMARK  205  A    between atoms: _509  and  _510
REMARK  206  A    between atoms: _509  and  _512
REMARK  207  A    between atoms: _512  and  _513
REMARK  208  A    between atoms: _513  and  _514
REMARK  209  A    between atoms: _514  and  _515
REMARK  210  A    between atoms: _524  and  _526
REMARK  211  A    between atoms: _526  and  _527
REMARK  212  A    between atoms: _529  and  _531
REMARK  213  A    between atoms: _531  and  _532
REMARK  214  A    between atoms: _531  and  _534
REMARK  215  A    between atoms: _534  and  _535
REMARK  216  A    between atoms: _535  and  _536
REMARK  217  A    between atoms: _539  and  _541
REMARK  218  A    between atoms: _541  and  _542
REMARK  219  A    between atoms: _541  and  _544
REMARK  220  A    between atoms: _544  and  _545
REMARK  221  A    between atoms: _548  and  _550
REMARK  222  A    between atoms: _550  and  _551
REMARK  223  A    between atoms: _550  and  _553
REMARK  224  A    between atoms: _553  and  _554
REMARK  225  A    between atoms: _557  and  _559
REMARK  226  A    between atoms: _559  and  _560
REMARK  227  A    between atoms: _559  and  _562
REMARK  228  A    between atoms: _562  and  _563
REMARK  229  A    between atoms: _563  and  _564
REMARK  230  A    between atoms: _564  and  _565
REMARK  231  A    between atoms: _574  and  _576
REMARK  232  A    between atoms: _576  and  _577
REMARK  233  A    between atoms: _576  and  _579
REMARK  234  A    between atoms: _579  and  _580
REMARK  235  A    between atoms: _583  and  _585
REMARK  236  A    between atoms: _585  and  _586
REMARK  237  A    between atoms: _585  and  _588
REMARK  238  A    between atoms: _588  and  _589
REMARK  239  A    between atoms: _589  and  _590
REMARK  240  A    between atoms: _593  and  _595
REMARK  241  A    between atoms: _595  and  _596
REMARK  242  A    between atoms: _595  and  _598
REMARK  243  A    between atoms: _598  and  _599
REMARK  244  A    between atoms: _599  and  _600
REMARK  245  A    between atoms: _605  and  _607
REMARK  246  A    between atoms: _607  and  _608
REMARK  247  A    between atoms: _607  and  _610
REMARK  248  A    between atoms: _610  and  _611
REMARK  249  A    between atoms: _611  and  _612
REMARK  250  A    between atoms: _615  and  _617
REMARK  251  A    between atoms: _617  and  _618
REMARK  252  A    between atoms: _617  and  _620
REMARK  253  A    between atoms: _620  and  _621
REMARK  254  A    between atoms: _627  and  _629
REMARK  255  A    between atoms: _629  and  _630
REMARK  256  A    between atoms: _629  and  _632
REMARK  257  A    between atoms: _632  and  _633
REMARK  258  A    between atoms: _639  and  _641
REMARK  259  A    between atoms: _641  and  _642
REMARK  260  A    between atoms: _641  and  _644
REMARK  261  A    between atoms: _644  and  _645
REMARK  262  A    between atoms: _648  and  _650
REMARK  263  A    between atoms: _650  and  _651
REMARK  264  A    between atoms: _650  and  _653
REMARK  265  A    between atoms: _653  and  _654
REMARK  266  A    between atoms: _659  and  _660
REMARK  267  A    between atoms: _662  and  _664
REMARK  268  A    between atoms: _664  and  _665
REMARK  269  A    between atoms: _668  and  _670
REMARK  270  A    between atoms: _670  and  _671
REMARK  271  A    between atoms: _670  and  _673
REMARK  272  A    between atoms: _673  and  _674
REMARK  273  A    between atoms: _674  and  _675
REMARK  274  A    between atoms: _681  and  _682
REMARK  275  A    between atoms: _687  and  _689
REMARK  276  A    between atoms: _689  and  _690
REMARK  277  A    between atoms: _689  and  _692
REMARK  278  A    between atoms: _692  and  _693
REMARK  279  A    between atoms: _696  and  _698
REMARK  280  A    between atoms: _698  and  _699
REMARK  281  A    between atoms: _698  and  _701
REMARK  282  A    between atoms: _701  and  _702
REMARK  283  A    between atoms: _702  and  _703
REMARK  284  A    between atoms: _706  and  _708
REMARK  285  A    between atoms: _708  and  _709
REMARK  286  A    between atoms: _708  and  _711
REMARK                            x       y       z     vdW  Elec       q    Type
REMARK                         _______ _______ _______ _____ _____    ______ ____
ROOT
ATOM      1  CG  TYR A   1      32.232 107.213  19.205  0.00  0.00    -0.020 A 
ATOM      2  CD2 TYR A   1      30.997 107.025  19.834  0.00  0.00    -0.001 A 
ATOM      3  CE2 TYR A   1      29.897 106.545  19.138  0.00  0.00    +0.036 A 
ATOM      4  CZ  TYR A   1      30.005 106.245  17.801  0.00  0.00    +0.134 A 
ATOM      5  CE1 TYR A   1      31.216 106.402  17.146  0.00  0.00    +0.036 A 
ATOM      6  CD1 TYR A   1      32.328 106.890  17.858  0.00  0.00    -0.001 A 
ENDROOT
BRANCH   4   7
ATOM      7  OH  TYR A   1      28.890 105.865  17.077  0.00  0.00    -0.506 OA
ATOM      8  HH  TYR A   1      29.152 105.689  16.139  0.00  0.00    +0.292 HD
ENDBRANCH   4   7
BRANCH   1   9
ATOM      9  CB  TYR A   1      33.406 107.834  19.956  0.00  0.00    +0.051 C 
BRANCH   9  10
ATOM     10  CA  TYR A   1      34.741 107.061  19.894  0.00  0.00    +0.137 C 
BRANCH  10  11
ATOM     11  N   TYR A   1      34.992 106.364  21.151  0.00  0.00    -0.239 NA
ATOM     12  H   TYR A   1      34.302 106.420  21.927  0.00  0.00    +0.142 HD
ENDBRANCH  10  11
BRANCH  10  13
ATOM     13  C   TYR A   1      35.892 108.071  19.720  0.00  0.00    +0.224 C 
ATOM     14  O   TYR A   1      36.514 108.149  18.660  0.00  0.00    -0.287 OA
ENDBRANCH  10  13
ENDBRANCH   9  10
ENDBRANCH   1   9
TORSDOF 5
REMARK  Name = ../refined-set-2016/4tmk/4tmk_pocket.pdb
REMARK  286 active torsions:
REMARK  status: ('A' for Active; 'I' for Inactive)
REMARK    1  A    between atoms: _1  and  _3
REMARK    2  A    between atoms: _3  and  _4
REMARK    3  A    between atoms: _3  and  _6
REMARK    4  A    between atoms: _6  and  _7
REMARK    5  A    between atoms: _10  and  _12
REMARK    6  A    between atoms: _12  and  _13
REMARK    7  A    between atoms: _12  and  _15
REMARK    8  A    between atoms: _15  and  _16
REMARK    9  A    between atoms: _16  and  _17
REMARK   10  A    between atoms: _20  and  _22
REMARK   11  A    between atoms: _22  and  _23
REMARK   12  A    between atoms: _25  and  _27
REMARK   13  A    between atoms: _27  and  _28
REMARK   14  A    between atoms: _27  and  _30
REMARK   15  A    between atoms: _30  and  _31
REMARK   16  A    between atoms: _34  and  _36
REMARK   17  A    between atoms: _36  and  _37
REMARK   18  A    between atoms: _36  and  _39
REMARK   19  A    between atoms: _39  and  _40
REMARK   20  A    between atoms: _40  and  _41
REMARK   21  A    between atoms: _44  and  _46
REMARK   22  A    between atoms: _46  and  _47
REMARK   23  A    between atoms: _49  and  _51
REMARK   24  A    between atoms: _51  and  _52
REMARK   25  A    between atoms: _55  and  _57
REMARK   26  A    between atoms: _57  and  _58
REMARK   27  A    between atoms: _60  and  _62
REMARK   28  A    between atoms: _62  and  _63
REMARK   29  A    between atoms: _62  and  _65
REMARK   30  A    between atoms: _65  and  _66
REMARK   31  A    between atoms: _66  and  _67
REMARK   32  A    between atoms: _67  and  _68
REMARK   33  A    between atoms: _68  and  _69
REMARK   34  A    between atoms: _73  and  _75
REMARK   35  A    between atoms: _75  and  _76
REMARK   36  A    between atoms: _75  and  _78
REMARK   37  A    between atoms: _78  and  _79
REMARK   38  A    between atoms: _82  and  _84
REMARK   39  A    between atoms: _84  and  _85
REMARK   40  A    between atoms: _84  and  _87
REMARK   41  A    between atoms: _87  and  _88
REMARK   42  A    between atoms: _91  and  _93
REMARK   43  A    between atoms: _93  and  _94
REMARK   44  A    between atoms: _97  and  _99
REMARK   45  A    between atoms: _99  and  _100
REMARK   46  A    between atoms: _99  and  _102
REMARK   47  A    between atoms: _102  and  _103
REMARK   48  A    between atoms: _103  and  _104
REMARK   49  A    between atoms: _104  and  _105
REMARK   50  A    between atoms: _114  and  _116
REMARK   51  A    between atoms: _116  and  _117
REMARK   52  A    between atoms: _116  and  _119
REMARK   53  A    between atoms: _119  and  _120
REMARK   54  A    between atoms: _125  and  _127
REMARK   55  A    between atoms: _127  and  _128
REMARK   56  A    between atoms: _127  and  _130
REMARK   57  A    between atoms: _130  and  _131
REMARK   58  A    between atoms: _131  and  _132
REMARK   59  A    between atoms: _132  and  _133
REMARK   60  A    between atoms: _142  and  _144
REMARK   61  A    between atoms: _144  and  _145
REMARK   62  A    between atoms: _144  and  _147
REMARK   63  A    between atoms: _147  and  _148
REMARK   64  A    between atoms: _148  and  _149
REMARK   65  A    between atoms: _153  and  _154
REMARK   66  A    between atoms: _159  and  _161
REMARK   67  A    between atoms: _161  and  _162
REMARK   68  A    between atoms: _164  and  _166
REMARK   69  A    between atoms: _166  and  _167
REMARK   70  A    between atoms: _166  and  _169
REMARK   71  A    between atoms: _169  and  _170
REMARK   72  A    between atoms: _170  and  _171
REMARK   73  A    between atoms: _171  and  _172
REMARK   74  A    between atoms: _181  and  _183
REMARK   75  A    between atoms: _183  and  _184
REMARK   76  A    between atoms: _183  and  _186
REMARK   77  A    between atoms: _186  and  _187
REMARK   78  A    between atoms: _190  and  _192
REMARK   79  A    between atoms: _192  and  _193
REMARK   80  A    between atoms: _192  and  _195
REMARK   81  A    between atoms: _195  and  _196
REMARK   82  A    between atoms: _199  and  _201
REMARK   83  A    between atoms: _201  and  _202
REMARK   84  A    between atoms: _201  and  _204
REMARK   85  A    between atoms: _204  and  _205
REMARK   86  A    between atoms: _205  and  _206
REMARK   87  A    between atoms: _209  and  _211
REMARK   88  A    between atoms: _211  and  _212
REMARK   89  A    between atoms: _211  and  _214
REMARK   90  A    between atoms: _217  and  _219
REMARK   91  A    between atoms: _219  and  _220
REMARK   92  A    between atoms: _219  and  _222
REMARK   93  A    between atoms: _222  and  _223
REMARK   94  A    between atoms: _223  and  _224
REMARK   95  A    between atoms: _226  and  _228
REMARK   96  A    between atoms: _228  and  _229
REMARK   97  A    between atoms: _228  and  _231
REMARK   98  A    between atoms: _231  and  _232
REMARK   99  A    between atoms: _238  and  _240
REMARK  100  A    between atoms: _240  and  _241
REMARK  101  A    between atoms: _240  and  _243
REMARK  102  A    between atoms: _243  and  _244
REMARK  103  A    between atoms: _249  and  _250
REMARK  104  A    between atoms: _252  and  _254
REMARK  105  A    between atoms: _254  and  _255
REMARK  106  A    between atoms: _258  and  _260
REMARK  107  A    between atoms: _260  and  _261
REMARK  108  A    between atoms: _260  and  _263
REMARK  109  A    between atoms: _263  and  _264
REMARK  110  A    between atoms: _264  and  _265
REMARK  111  A    between atoms: _265  and  _266
REMARK  112  A    between atoms: _275  and  _277
REMARK  113  A    between atoms: _277  and  _278
REMARK  114  A    between atoms: _277  and  _280
REMARK  115  A    between atoms: _280  and  _281
REMARK  116  A    between atoms: _284  and  _286
REMARK  117  A    between atoms: _286  and  _287
REMARK  118  A    between atoms: _286  and  _289
REMARK  119  A    between atoms: _289  and  _290
REMARK  120  A    between atoms: _290  and  _291
REMARK  121  A    between atoms: _291  and  _292
REMARK  122  A    between atoms: _301  and  _303
REMARK  123  A    between atoms: _303  and  _304
REMARK  124  A    between atoms: _303  and  _306
REMARK  125  A    between atoms: _306  and  _307
REMARK  126  A    between atoms: _312  and  _314
REMARK  127  A    between atoms: _314  and  _315
REMARK  128  A    between atoms: _314  and  _317
REMARK  129  A    between atoms: _317  and  _318
REMARK  130  A    between atoms: _321  and  _323
REMARK  131  A    between atoms: _323  and  _324
REMARK  132  A    between atoms: _323  and  _326
REMARK  133  A    between atoms: _326  and  _327
REMARK  134  A    between atoms: _330  and  _332
REMARK  135  A    between atoms: _332  and  _333
REMARK  136  A    between atoms: _332  and  _335
REMARK  137  A    between atoms: _335  and  _336
REMARK  138  A    between atoms: _338  and  _340
REMARK  139  A    between atoms: _340  and  _341
REMARK  140  A    between atoms: _340  and  _343
REMARK  141  A    between atoms: _343  and  _344
REMARK  142  A    between atoms: _347  and  _349
REMARK  143  A    between atoms: _349  and  _350
REMARK  144  A    between atoms: _349  and  _352
REMARK  145  A    between atoms: _352  and  _353
REMARK  146  A    between atoms: _353  and  _354
REMARK  147  A    between atoms: _359  and  _361
REMARK  148  A    between atoms: _361  and  _362
REMARK  149  A    between atoms: _365  and  _367
REMARK  150  A    between atoms: _367  and  _368
REMARK  151  A    between atoms: _367  and  _370
REMARK  152  A    between atoms: _370  and  _371
REMARK  153  A    between atoms: _376  and  _377
REMARK  154  A    between atoms: _379  and  _381
REMARK  155  A    between atoms: _381  and  _382
REMARK  156  A    between atoms: _381  and  _384
REMARK  157  A    between atoms: _384  and  _385
REMARK  158  A    between atoms: _385  and  _386
REMARK  159  A    between atoms: _391  and  _393
REMARK  160  A    between atoms: _393  and  _394
REMARK  161  A    between atoms: _396  and  _398
REMARK  162  A    between atoms: _398  and  _399
REMARK  163  A    between atoms: _401  and  _403
REMARK  164  A    between atoms: _403  and  _404
REMARK  165  A    between atoms: _403  and  _406
REMARK  166  A    between atoms: _406  and  _407
REMARK  167  A    between atoms: _407  and  _408
REMARK  168  A    between atoms: _408  and  _409
REMARK  169  A    between atoms: _418  and  _420
REMARK  170  A    between atoms: _420  and  _421
REMARK  171  A    between atoms: _420  and  _423
REMARK  172  A    between atoms: _423  and  _424
REMARK  173  A    between atoms: _427  and  _429
REMARK  174  A    between atoms: _429  and  _430
REMARK  175  A    between atoms: _429  and  _432
REMARK  176  A    between atoms: _435  and  _437
REMARK  177  A    between atoms: _437  and  _438
REMARK  178  A    between atoms: _437  and  _440
REMARK  179  A    between atoms: _443  and  _445
REMARK  180  A    between atoms: _445  and  _446
REMARK  181  A    between atoms: _448  and  _450
REMARK  182  A    between atoms: _450  and  _451
REMARK  183  A    between atoms: _450  and  _453
REMARK  184  A    between atoms: _453  and  _454
REMARK  185  A    between atoms: _454  and  _455
REMARK  186  A    between atoms: _455  and  _456
REMARK  187  A    between atoms: _456  and  _457
REMARK  188  A    between atoms: _461  and  _463
REMARK  189  A    between atoms: _463  and  _464
REMARK  190  A    between atoms: _463  and  _466
REMARK  191  A    between atoms: _466  and  _467
REMARK  192  A    between atoms: _467  and  _468
REMARK  193  A    between atoms: _468  and  _469
REMARK  194  A    between atoms: _478  and  _480
REMARK  195  A    between atoms: _480  and  _481
REMARK  196  A    between atoms: _484  and  _486
REMARK  197  A    between atoms: _486  and  _487
REMARK  198  A    between atoms: _486  and  _489
REMARK  199  A    between atoms: _489  and  _490
REMARK  200  A    between atoms: _490  and  _491
REMARK  201  A    between atoms: _491  and  _492
REMARK  202  A    between atoms: _501  and  _503
REMARK  203  A    between atoms: _503  and  _504
REMARK  204  A    between atoms: _507  and  _509
REMARK  205  A    between atoms: _509  and  _510
REMARK  206  A    between atoms: _509  and  _512
REMARK  207  A    between atoms: _512  and  _513
REMARK  208  A    between atoms: _513  and  _514
REMARK  209  A    between atoms: _514  and  _515
REMARK  210  A    between atoms: _524  and  _526
REMARK  211  A    between atoms: _526  and  _527
REMARK  212  A    between atoms: _529  and  _531
REMARK  213  A    between atoms: _531  and  _532
REMARK  214  A    between atoms: _531  and  _534
REMARK  215  A    between atoms: _534  and  _535
REMARK  216  A    between atoms: _535  and  _536
REMARK  217  A    between atoms: _539  and  _541
REMARK  218  A    between atoms: _541  and  _542
REMARK  219  A    between atoms: _541  and  _544
REMARK  220  A    between atoms: _544  and  _545
REMARK  221  A    between atoms: _548  and  _550
REMARK  222  A    between atoms: _550  and  _551
REMARK  223  A    between atoms: _550  and  _553
REMARK  224  A    between atoms: _553  and  _554
REMARK  225  A    between atoms: _557  and  _559
REMARK  226  A    between atoms: _559  and  _560
REMARK  227  A    between atoms: _559  and  _562
REMARK  228  A    between atoms: _562  and  _563
REMARK  229  A    between atoms: _563  and  _564
REMARK  230  A    between atoms: _564  and  _565
REMARK  231  A    between atoms: _574  and  _576
REMARK  232  A    between atoms: _576  and  _577
REMARK  233  A    between atoms: _576  and  _579
REMARK  234  A    between atoms: _579  and  _580
REMARK  235  A    between atoms: _583  and  _585
REMARK  236  A    between atoms: _585  and  _586
REMARK  237  A    between atoms: _585  and  _588
REMARK  238  A    between atoms: _588  and  _589
REMARK  239  A    between atoms: _589  and  _590
REMARK  240  A    between atoms: _593  and  _595
REMARK  241  A    between atoms: _595  and  _596
REMARK  242  A    between atoms: _595  and  _598
REMARK  243  A    between atoms: _598  and  _599
REMARK  244  A    between atoms: _599  and  _600
REMARK  245  A    between atoms: _605  and  _607
REMARK  246  A    between atoms: _607  and  _608
REMARK  247  A    between atoms: _607  and  _610
REMARK  248  A    between atoms: _610  and  _611
REMARK  249  A    between atoms: _611  and  _612
REMARK  250  A    between atoms: _615  and  _617
REMARK  251  A    between atoms: _617  and  _618
REMARK  252  A    between atoms: _617  and  _620
REMARK  253  A    between atoms: _620  and  _621
REMARK  254  A    between atoms: _627  and  _629
REMARK  255  A    between atoms: _629  and  _630
REMARK  256  A    between atoms: _629  and  _632
REMARK  257  A    between atoms: _632  and  _633
REMARK  258  A    between atoms: _639  and  _641
REMARK  259  A    between atoms: _641  and  _642
REMARK  260  A    between atoms: _641  and  _644
REMARK  261  A    between atoms: _644  and  _645
REMARK  262  A    between atoms: _648  and  _650
REMARK  263  A    between atoms: _650  and  _651
REMARK  264  A    between atoms: _650  and  _653
REMARK  265  A    between atoms: _653  and  _654
REMARK  266  A    between atoms: _659  and  _660
REMARK  267  A    between atoms: _662  and  _664
REMARK  268  A    between atoms: _664  and  _665
REMARK  269  A    between atoms: _668  and  _670
REMARK  270  A    between atoms: _670  and  _671
REMARK  271  A    between atoms: _670  and  _673
REMARK  272  A    between atoms: _673  and  _674
REMARK  273  A    between atoms: _674  and  _675
REMARK  274  A    between atoms: _681  and  _682
REMARK  275  A    between atoms: _687  and  _689
REMARK  276  A    between atoms: _689  and  _690
REMARK  277  A    between atoms: _689  and  _692
REMARK  278  A    between atoms: _692  and  _693
REMARK  279  A    between atoms: _696  and  _698
REMARK  280  A    between atoms: _698  and  _699
REMARK  281  A    between atoms: _698  and  _701
REMARK  282  A    between atoms: _701  and  _702
REMARK  283  A    between atoms: _702  and  _703
REMARK  284  A    between atoms: _706  and  _708
REMARK  285  A    between atoms: _708  and  _709
REMARK  286  A    between atoms: _708  and  _711
REMARK                            x       y       z     vdW  Elec       q    Type
REMARK                         _______ _______ _______ _____ _____    ______ ____
ROOT
ATOM      1  CA  ALA A   1      28.373 118.719  19.420  0.00  0.00    +0.133 C 
ATOM      2  CB  ALA A   1      27.741 117.490  18.740  0.00  0.00    +0.027 C 
ENDROOT
BRANCH   1   3
ATOM      3  N   ALA A   1      29.811 118.544  19.538  0.00  0.00    -0.239 NA
ATOM      4  H   ALA A   1      30.200 117.648  19.895  0.00  0.00    +0.142 HD
ENDBRANCH   1   3
BRANCH   1   5
ATOM      5  C   ALA A   1      27.702 118.993  20.752  0.00  0.00    +0.224 C 
ATOM      6  O   ALA A   1      26.547 118.633  20.934  0.00  0.00    -0.287 OA
ENDBRANCH   1   5
TORSDOF 2
REMARK  Name = ../refined-set-2016/4tmk/4tmk_pocket.pdb
REMARK  286 active torsions:
REMARK  status: ('A' for Active; 'I' for Inactive)
REMARK    1  A    between atoms: _1  and  _3
REMARK    2  A    between atoms: _3  and  _4
REMARK    3  A    between atoms: _3  and  _6
REMARK    4  A    between atoms: _6  and  _7
REMARK    5  A    between atoms: _10  and  _12
REMARK    6  A    between atoms: _12  and  _13
REMARK    7  A    between atoms: _12  and  _15
REMARK    8  A    between atoms: _15  and  _16
REMARK    9  A    between atoms: _16  and  _17
REMARK   10  A    between atoms: _20  and  _22
REMARK   11  A    between atoms: _22  and  _23
REMARK   12  A    between atoms: _25  and  _27
REMARK   13  A    between atoms: _27  and  _28
REMARK   14  A    between atoms: _27  and  _30
REMARK   15  A    between atoms: _30  and  _31
REMARK   16  A    between atoms: _34  and  _36
REMARK   17  A    between atoms: _36  and  _37
REMARK   18  A    between atoms: _36  and  _39
REMARK   19  A    between atoms: _39  and  _40
REMARK   20  A    between atoms: _40  and  _41
REMARK   21  A    between atoms: _44  and  _46
REMARK   22  A    between atoms: _46  and  _47
REMARK   23  A    between atoms: _49  and  _51
REMARK   24  A    between atoms: _51  and  _52
REMARK   25  A    between atoms: _55  and  _57
REMARK   26  A    between atoms: _57  and  _58
REMARK   27  A    between atoms: _60  and  _62
REMARK   28  A    between atoms: _62  and  _63
REMARK   29  A    between atoms: _62  and  _65
REMARK   30  A    between atoms: _65  and  _66
REMARK   31  A    between atoms: _66  and  _67
REMARK   32  A    between atoms: _67  and  _68
REMARK   33  A    between atoms: _68  and  _69
REMARK   34  A    between atoms: _73  and  _75
REMARK   35  A    between atoms: _75  and  _76
REMARK   36  A    between atoms: _75  and  _78
REMARK   37  A    between atoms: _78  and  _79
REMARK   38  A    between atoms: _82  and  _84
REMARK   39  A    between atoms: _84  and  _85
REMARK   40  A    between atoms: _84  and  _87
REMARK   41  A    between atoms: _87  and  _88
REMARK   42  A    between atoms: _91  and  _93
REMARK   43  A    between atoms: _93  and  _94
REMARK   44  A    between atoms: _97  and  _99
REMARK   45  A    between atoms: _99  and  _100
REMARK   46  A    between atoms: _99  and  _102
REMARK   47  A    between atoms: _102  and  _103
REMARK   48  A    between atoms: _103  and  _104
REMARK   49  A    between atoms: _104  and  _105
REMARK   50  A    between atoms: _114  and  _116
REMARK   51  A    between atoms: _116  and  _117
REMARK   52  A    between atoms: _116  and  _119
REMARK   53  A    between atoms: _119  and  _120
REMARK   54  A    between atoms: _125  and  _127
REMARK   55  A    between atoms: _127  and  _128
REMARK   56  A    between atoms: _127  and  _130
REMARK   57  A    between atoms: _130  and  _131
REMARK   58  A    between atoms: _131  and  _132
REMARK   59  A    between atoms: _132  and  _133
REMARK   60  A    between atoms: _142  and  _144
REMARK   61  A    between atoms: _144  and  _145
REMARK   62  A    between atoms: _144  and  _147
REMARK   63  A    between atoms: _147  and  _148
REMARK   64  A    between atoms: _148  and  _149
REMARK   65  A    between atoms: _153  and  _154
REMARK   66  A    between atoms: _159  and  _161
REMARK   67  A    between atoms: _161  and  _162
REMARK   68  A    between atoms: _164  and  _166
REMARK   69  A    between atoms: _166  and  _167
REMARK   70  A    between atoms: _166  and  _169
REMARK   71  A    between atoms: _169  and  _170
REMARK   72  A    between atoms: _170  and  _171
REMARK   73  A    between atoms: _171  and  _172
REMARK   74  A    between atoms: _181  and  _183
REMARK   75  A    between atoms: _183  and  _184
REMARK   76  A    between atoms: _183  and  _186
REMARK   77  A    between atoms: _186  and  _187
REMARK   78  A    between atoms: _190  and  _192
REMARK   79  A    between atoms: _192  and  _193
REMARK   80  A    between atoms: _192  and  _195
REMARK   81  A    between atoms: _195  and  _196
REMARK   82  A    between atoms: _199  and  _201
REMARK   83  A    between atoms: _201  and  _202
REMARK   84  A    between atoms: _201  and  _204
REMARK   85  A    between atoms: _204  and  _205
REMARK   86  A    between atoms: _205  and  _206
REMARK   87  A    between atoms: _209  and  _211
REMARK   88  A    between atoms: _211  and  _212
REMARK   89  A    between atoms: _211  and  _214
REMARK   90  A    between atoms: _217  and  _219
REMARK   91  A    between atoms: _219  and  _220
REMARK   92  A    between atoms: _219  and  _222
REMARK   93  A    between atoms: _222  and  _223
REMARK   94  A    between atoms: _223  and  _224
REMARK   95  A    between atoms: _226  and  _228
REMARK   96  A    between atoms: _228  and  _229
REMARK   97  A    between atoms: _228  and  _231
REMARK   98  A    between atoms: _231  and  _232
REMARK   99  A    between atoms: _238  and  _240
REMARK  100  A    between atoms: _240  and  _241
REMARK  101  A    between atoms: _240  and  _243
REMARK  102  A    between atoms: _243  and  _244
REMARK  103  A    between atoms: _249  and  _250
REMARK  104  A    between atoms: _252  and  _254
REMARK  105  A    between atoms: _254  and  _255
REMARK  106  A    between atoms: _258  and  _260
REMARK  107  A    between atoms: _260  and  _261
REMARK  108  A    between atoms: _260  and  _263
REMARK  109  A    between atoms: _263  and  _264
REMARK  110  A    between atoms: _264  and  _265
REMARK  111  A    between atoms: _265  and  _266
REMARK  112  A    between atoms: _275  and  _277
REMARK  113  A    between atoms: _277  and  _278
REMARK  114  A    between atoms: _277  and  _280
REMARK  115  A    between atoms: _280  and  _281
REMARK  116  A    between atoms: _284  and  _286
REMARK  117  A    between atoms: _286  and  _287
REMARK  118  A    between atoms: _286  and  _289
REMARK  119  A    between atoms: _289  and  _290
REMARK  120  A    between atoms: _290  and  _291
REMARK  121  A    between atoms: _291  and  _292
REMARK  122  A    between atoms: _301  and  _303
REMARK  123  A    between atoms: _303  and  _304
REMARK  124  A    between atoms: _303  and  _306
REMARK  125  A    between atoms: _306  and  _307
REMARK  126  A    between atoms: _312  and  _314
REMARK  127  A    between atoms: _314  and  _315
REMARK  128  A    between atoms: _314  and  _317
REMARK  129  A    between atoms: _317  and  _318
REMARK  130  A    between atoms: _321  and  _323
REMARK  131  A    between atoms: _323  and  _324
REMARK  132  A    between atoms: _323  and  _326
REMARK  133  A    between atoms: _326  and  _327
REMARK  134  A    between atoms: _330  and  _332
REMARK  135  A    between atoms: _332  and  _333
REMARK  136  A    between atoms: _332  and  _335
REMARK  137  A    between atoms: _335  and  _336
REMARK  138  A    between atoms: _338  and  _340
REMARK  139  A    between atoms: _340  and  _341
REMARK  140  A    between atoms: _340  and  _343
REMARK  141  A    between atoms: _343  and  _344
REMARK  142  A    between atoms: _347  and  _349
REMARK  143  A    between atoms: _349  and  _350
REMARK  144  A    between atoms: _349  and  _352
REMARK  145  A    between atoms: _352  and  _353
REMARK  146  A    between atoms: _353  and  _354
REMARK  147  A    between atoms: _359  and  _361
REMARK  148  A    between atoms: _361  and  _362
REMARK  149  A    between atoms: _365  and  _367
REMARK  150  A    between atoms: _367  and  _368
REMARK  151  A    between atoms: _367  and  _370
REMARK  152  A    between atoms: _370  and  _371
REMARK  153  A    between atoms: _376  and  _377
REMARK  154  A    between atoms: _379  and  _381
REMARK  155  A    between atoms: _381  and  _382
REMARK  156  A    between atoms: _381  and  _384
REMARK  157  A    between atoms: _384  and  _385
REMARK  158  A    between atoms: _385  and  _386
REMARK  159  A    between atoms: _391  and  _393
REMARK  160  A    between atoms: _393  and  _394
REMARK  161  A    between atoms: _396  and  _398
REMARK  162  A    between atoms: _398  and  _399
REMARK  163  A    between atoms: _401  and  _403
REMARK  164  A    between atoms: _403  and  _404
REMARK  165  A    between atoms: _403  and  _406
REMARK  166  A    between atoms: _406  and  _407
REMARK  167  A    between atoms: _407  and  _408
REMARK  168  A    between atoms: _408  and  _409
REMARK  169  A    between atoms: _418  and  _420
REMARK  170  A    between atoms: _420  and  _421
REMARK  171  A    between atoms: _420  and  _423
REMARK  172  A    between atoms: _423  and  _424
REMARK  173  A    between atoms: _427  and  _429
REMARK  174  A    between atoms: _429  and  _430
REMARK  175  A    between atoms: _429  and  _432
REMARK  176  A    between atoms: _435  and  _437
REMARK  177  A    between atoms: _437  and  _438
REMARK  178  A    between atoms: _437  and  _440
REMARK  179  A    between atoms: _443  and  _445
REMARK  180  A    between atoms: _445  and  _446
REMARK  181  A    between atoms: _448  and  _450
REMARK  182  A    between atoms: _450  and  _451
REMARK  183  A    between atoms: _450  and  _453
REMARK  184  A    between atoms: _453  and  _454
REMARK  185  A    between atoms: _454  and  _455
REMARK  186  A    between atoms: _455  and  _456
REMARK  187  A    between atoms: _456  and  _457
REMARK  188  A    between atoms: _461  and  _463
REMARK  189  A    between atoms: _463  and  _464
REMARK  190  A    between atoms: _463  and  _466
REMARK  191  A    between atoms: _466  and  _467
REMARK  192  A    between atoms: _467  and  _468
REMARK  193  A    between atoms: _468  and  _469
REMARK  194  A    between atoms: _478  and  _480
REMARK  195  A    between atoms: _480  and  _481
REMARK  196  A    between atoms: _484  and  _486
REMARK  197  A    between atoms: _486  and  _487
REMARK  198  A    between atoms: _486  and  _489
REMARK  199  A    between atoms: _489  and  _490
REMARK  200  A    between atoms: _490  and  _491
REMARK  201  A    between atoms: _491  and  _492
REMARK  202  A    between atoms: _501  and  _503
REMARK  203  A    between atoms: _503  and  _504
REMARK  204  A    between atoms: _507  and  _509
REMARK  205  A    between atoms: _509  and  _510
REMARK  206  A    between atoms: _509  and  _512
REMARK  207  A    between atoms: _512  and  _513
REMARK  208  A    between atoms: _513  and  _514
REMARK  209  A    between atoms: _514  and  _515
REMARK  210  A    between atoms: _524  and  _526
REMARK  211  A    between atoms: _526  and  _527
REMARK  212  A    between atoms: _529  and  _531
REMARK  213  A    between atoms: _531  and  _532
REMARK  214  A    between atoms: _531  and  _534
REMARK  215  A    between atoms: _534  and  _535
REMARK  216  A    between atoms: _535  and  _536
REMARK  217  A    between atoms: _539  and  _541
REMARK  218  A    between atoms: _541  and  _542
REMARK  219  A    between atoms: _541  and  _544
REMARK  220  A    between atoms: _544  and  _545
REMARK  221  A    between atoms: _548  and  _550
REMARK  222  A    between atoms: _550  and  _551
REMARK  223  A    between atoms: _550  and  _553
REMARK  224  A    between atoms: _553  and  _554
REMARK  225  A    between atoms: _557  and  _559
REMARK  226  A    between atoms: _559  and  _560
REMARK  227  A    between atoms: _559  and  _562
REMARK  228  A    between atoms: _562  and  _563
REMARK  229  A    between atoms: _563  and  _564
REMARK  230  A    between atoms: _564  and  _565
REMARK  231  A    between atoms: _574  and  _576
REMARK  232  A    between atoms: _576  and  _577
REMARK  233  A    between atoms: _576  and  _579
REMARK  234  A    between atoms: _579  and  _580
REMARK  235  A    between atoms: _583  and  _585
REMARK  236  A    between atoms: _585  and  _586
REMARK  237  A    between atoms: _585  and  _588
REMARK  238  A    between atoms: _588  and  _589
REMARK  239  A    between atoms: _589  and  _590
REMARK  240  A    between atoms: _593  and  _595
REMARK  241  A    between atoms: _595  and  _596
REMARK  242  A    between atoms: _595  and  _598
REMARK  243  A    between atoms: _598  and  _599
REMARK  244  A    between atoms: _599  and  _600
REMARK  245  A    between atoms: _605  and  _607
REMARK  246  A    between atoms: _607  and  _608
REMARK  247  A    between atoms: _607  and  _610
REMARK  248  A    between atoms: _610  and  _611
REMARK  249  A    between atoms: _611  and  _612
REMARK  250  A    between atoms: _615  and  _617
REMARK  251  A    between atoms: _617  and  _618
REMARK  252  A    between atoms: _617  and  _620
REMARK  253  A    between atoms: _620  and  _621
REMARK  254  A    between atoms: _627  and  _629
REMARK  255  A    between atoms: _629  and  _630
REMARK  256  A    between atoms: _629  and  _632
REMARK  257  A    between atoms: _632  and  _633
REMARK  258  A    between atoms: _639  and  _641
REMARK  259  A    between atoms: _641  and  _642
REMARK  260  A    between atoms: _641  and  _644
REMARK  261  A    between atoms: _644  and  _645
REMARK  262  A    between atoms: _648  and  _650
REMARK  263  A    between atoms: _650  and  _651
REMARK  264  A    between atoms: _650  and  _653
REMARK  265  A    between atoms: _653  and  _654
REMARK  266  A    between atoms: _659  and  _660
REMARK  267  A    between atoms: _662  and  _664
REMARK  268  A    between atoms: _664  and  _665
REMARK  269  A    between atoms: _668  and  _670
REMARK  270  A    between atoms: _670  and  _671
REMARK  271  A    between atoms: _670  and  _673
REMARK  272  A    between atoms: _673  and  _674
REMARK  273  A    between atoms: _674  and  _675
REMARK  274  A    between atoms: _681  and  _682
REMARK  275  A    between atoms: _687  and  _689
REMARK  276  A    between atoms: _689  and  _690
REMARK  277  A    between atoms: _689  and  _692
REMARK  278  A    between atoms: _692  and  _693
REMARK  279  A    between atoms: _696  and  _698
REMARK  280  A    between atoms: _698  and  _699
REMARK  281  A    between atoms: _698  and  _701
REMARK  282  A    between atoms: _701  and  _702
REMARK  283  A    between atoms: _702  and  _703
REMARK  284  A    between atoms: _706  and  _708
REMARK  285  A    between atoms: _708  and  _709
REMARK  286  A    between atoms: _708  and  _711
REMARK                            x       y       z     vdW  Elec       q    Type
REMARK                         _______ _______ _______ _____ _____    ______ ____
ROOT
ATOM      1  C   PRO A   2      24.689 124.962  18.999  0.00  0.00    +0.241 C 
ATOM      2  N   LEU A   3      23.483 124.668  18.533  0.00  0.00    -0.297 N 
ATOM      3  H   LEU A   3      22.660 124.792  19.157  0.00  0.00    +0.150 HD
ATOM      4  O   PRO A   2      25.698 124.912  18.302  0.00  0.00    -0.273 OA
ENDROOT
BRANCH   1  10
ATOM      5  C   GLN A   1      26.538 123.784  20.978  0.00  0.00    +0.241 C 
ATOM      6  N   PRO A   2      26.079 125.056  21.026  0.00  0.00    -0.272 N 
ATOM      7  CD  PRO A   2      26.734 126.228  21.641  0.00  0.00    +0.094 C 
ATOM      8  CG  PRO A   2      25.602 127.202  21.794  0.00  0.00    +0.024 C 
ATOM      9  CB  PRO A   2      24.679 126.907  20.619  0.00  0.00    +0.031 C 
ATOM     10  CA  PRO A   2      24.762 125.395  20.460  0.00  0.00    +0.152 C 
ATOM     11  O   GLN A   1      25.874 122.878  20.495  0.00  0.00    -0.273 OA
BRANCH   5  12
ATOM     12  CA  GLN A   1      27.927 123.488  21.568  0.00  0.00    +0.145 C 
BRANCH  12  13
ATOM     13  N   GLN A   1      28.010 122.057  21.818  0.00  0.00    -0.238 NA
ATOM     14  H   GLN A   1      28.321 121.444  21.038  0.00  0.00    +0.142 HD
ENDBRANCH  12  13
BRANCH  12  15
ATOM     15  CB  GLN A   1      29.022 123.888  20.551  0.00  0.00    +0.036 C 
BRANCH  15  16
ATOM     16  CG  GLN A   1      30.473 123.741  21.075  0.00  0.00    +0.087 C 
BRANCH  16  17
ATOM     17  CD  GLN A   1      30.657 124.342  22.480  0.00  0.00    +0.219 C 
ATOM     18  NE2 GLN A   1      31.257 123.580  23.400  0.00  0.00    -0.329 N 
ATOM     19 HE21 GLN A   1      31.398 123.943  24.364  0.00  0.00    +0.145 HD
ATOM     20 HE22 GLN A   1      31.583 122.624  23.151  0.00  0.00    +0.145 HD
ATOM     21  OE1 GLN A   1      30.253 125.483  22.728  0.00  0.00    -0.275 OA
ENDBRANCH  16  17
ENDBRANCH  15  16
ENDBRANCH  12  15
ENDBRANCH   5  12
ENDBRANCH   1  10
BRANCH   2  22
ATOM     22  CA  LEU A   3      23.271 124.178  17.178  0.00  0.00    +0.149 C 
BRANCH  22  23
ATOM     23  C   LEU A   3      23.960 124.898  16.061  0.00  0.00    +0.241 C 
ATOM     24  N   GLU A   4      23.887 126.217  16.102  0.00  0.00    -0.298 N 
ATOM     25  H   GLU A   4      23.399 126.681  16.895  0.00  0.00    +0.150 HD
ATOM     26  O   LEU A   3      24.519 124.273  15.152  0.00  0.00    -0.273 OA
BRANCH  24  27
ATOM     27  CA  GLU A   4      24.483 127.029  15.048  0.00  0.00    +0.137 C 
BRANCH  27  28
ATOM     28  C   GLU A   4      26.012 126.855  14.989  0.00  0.00    +0.227 C 
ATOM     29  O   GLU A   4      26.599 126.818  13.906  0.00  0.00    -0.286 OA
ENDBRANCH  27  28
BRANCH  27  30
ATOM     30  CB  GLU A   4      24.060 128.498  15.250  0.00  0.00    +0.039 C 
BRANCH  30  31
ATOM     31  CG  GLU A   4      22.540 128.760  14.935  0.00  0.00    +0.116 C 
BRANCH  31  32
ATOM     32  CD  GLU A   4      21.626 128.835  16.189  0.00  0.00    +0.365 C 
ATOM     33  OE2 GLU A   4      21.924 128.156  17.216  0.00  0.00    -0.246 OA
ATOM     34  OE1 GLU A   4      20.607 129.585  16.142  0.00  0.00    -0.246 OA
ENDBRANCH  31  32
ENDBRANCH  30  31
ENDBRANCH  27  30
ENDBRANCH  24  27
ENDBRANCH  22  23
BRANCH  22  35
ATOM     35  CB  LEU A   3      21.786 124.146  16.861  0.00  0.00    +0.029 C 
BRANCH  35  36
ATOM     36  CG  LEU A   3      21.132 122.814  17.192  0.00  0.00    +0.002 C 
ATOM     37  CD2 LEU A   3      19.619 122.953  17.043  0.00  0.00    +0.000 C 
ATOM     38  CD1 LEU A   3      21.731 121.702  16.292  0.00  0.00    +0.000 C 
ENDBRANCH  35  36
ENDBRANCH  22  35
ENDBRANCH   2  22
TORSDOF 15
REMARK  Name = ../refined-set-2016/4tmk/4tmk_pocket.pdb
REMARK  286 active torsions:
REMARK  status: ('A' for Active; 'I' for Inactive)
REMARK    1  A    between atoms: _1  and  _3
REMARK    2  A    between atoms: _3  and  _4
REMARK    3  A    between atoms: _3  and  _6
REMARK    4  A    between atoms: _6  and  _7
REMARK    5  A    between atoms: _10  and  _12
REMARK    6  A    between atoms: _12  and  _13
REMARK    7  A    between atoms: _12  and  _15
REMARK    8  A    between atoms: _15  and  _16
REMARK    9  A    between atoms: _16  and  _17
REMARK   10  A    between atoms: _20  and  _22
REMARK   11  A    between atoms: _22  and  _23
REMARK   12  A    between atoms: _25  and  _27
REMARK   13  A    between atoms: _27  and  _28
REMARK   14  A    between atoms: _27  and  _30
REMARK   15  A    between atoms: _30  and  _31
REMARK   16  A    between atoms: _34  and  _36
REMARK   17  A    between atoms: _36  and  _37
REMARK   18  A    between atoms: _36  and  _39
REMARK   19  A    between atoms: _39  and  _40
REMARK   20  A    between atoms: _40  and  _41
REMARK   21  A    between atoms: _44  and  _46
REMARK   22  A    between atoms: _46  and  _47
REMARK   23  A    between atoms: _49  and  _51
REMARK   24  A    between atoms: _51  and  _52
REMARK   25  A    between atoms: _55  and  _57
REMARK   26  A    between atoms: _57  and  _58
REMARK   27  A    between atoms: _60  and  _62
REMARK   28  A    between atoms: _62  and  _63
REMARK   29  A    between atoms: _62  and  _65
REMARK   30  A    between atoms: _65  and  _66
REMARK   31  A    between atoms: _66  and  _67
REMARK   32  A    between atoms: _67  and  _68
REMARK   33  A    between atoms: _68  and  _69
REMARK   34  A    between atoms: _73  and  _75
REMARK   35  A    between atoms: _75  and  _76
REMARK   36  A    between atoms: _75  and  _78
REMARK   37  A    between atoms: _78  and  _79
REMARK   38  A    between atoms: _82  and  _84
REMARK   39  A    between atoms: _84  and  _85
REMARK   40  A    between atoms: _84  and  _87
REMARK   41  A    between atoms: _87  and  _88
REMARK   42  A    between atoms: _91  and  _93
REMARK   43  A    between atoms: _93  and  _94
REMARK   44  A    between atoms: _97  and  _99
REMARK   45  A    between atoms: _99  and  _100
REMARK   46  A    between atoms: _99  and  _102
REMARK   47  A    between atoms: _102  and  _103
REMARK   48  A    between atoms: _103  and  _104
REMARK   49  A    between atoms: _104  and  _105
REMARK   50  A    between atoms: _114  and  _116
REMARK   51  A    between atoms: _116  and  _117
REMARK   52  A    between atoms: _116  and  _119
REMARK   53  A    between atoms: _119  and  _120
REMARK   54  A    between atoms: _125  and  _127
REMARK   55  A    between atoms: _127  and  _128
REMARK   56  A    between atoms: _127  and  _130
REMARK   57  A    between atoms: _130  and  _131
REMARK   58  A    between atoms: _131  and  _132
REMARK   59  A    between atoms: _132  and  _133
REMARK   60  A    between atoms: _142  and  _144
REMARK   61  A    between atoms: _144  and  _145
REMARK   62  A    between atoms: _144  and  _147
REMARK   63  A    between atoms: _147  and  _148
REMARK   64  A    between atoms: _148  and  _149
REMARK   65  A    between atoms: _153  and  _154
REMARK   66  A    between atoms: _159  and  _161
REMARK   67  A    between atoms: _161  and  _162
REMARK   68  A    between atoms: _164  and  _166
REMARK   69  A    between atoms: _166  and  _167
REMARK   70  A    between atoms: _166  and  _169
REMARK   71  A    between atoms: _169  and  _170
REMARK   72  A    between atoms: _170  and  _171
REMARK   73  A    between atoms: _171  and  _172
REMARK   74  A    between atoms: _181  and  _183
REMARK   75  A    between atoms: _183  and  _184
REMARK   76  A    between atoms: _183  and  _186
REMARK   77  A    between atoms: _186  and  _187
REMARK   78  A    between atoms: _190  and  _192
REMARK   79  A    between atoms: _192  and  _193
REMARK   80  A    between atoms: _192  and  _195
REMARK   81  A    between atoms: _195  and  _196
REMARK   82  A    between atoms: _199  and  _201
REMARK   83  A    between atoms: _201  and  _202
REMARK   84  A    between atoms: _201  and  _204
REMARK   85  A    between atoms: _204  and  _205
REMARK   86  A    between atoms: _205  and  _206
REMARK   87  A    between atoms: _209  and  _211
REMARK   88  A    between atoms: _211  and  _212
REMARK   89  A    between atoms: _211  and  _214
REMARK   90  A    between atoms: _217  and  _219
REMARK   91  A    between atoms: _219  and  _220
REMARK   92  A    between atoms: _219  and  _222
REMARK   93  A    between atoms: _222  and  _223
REMARK   94  A    between atoms: _223  and  _224
REMARK   95  A    between atoms: _226  and  _228
REMARK   96  A    between atoms: _228  and  _229
REMARK   97  A    between atoms: _228  and  _231
REMARK   98  A    between atoms: _231  and  _232
REMARK   99  A    between atoms: _238  and  _240
REMARK  100  A    between atoms: _240  and  _241
REMARK  101  A    between atoms: _240  and  _243
REMARK  102  A    between atoms: _243  and  _244
REMARK  103  A    between atoms: _249  and  _250
REMARK  104  A    between atoms: _252  and  _254
REMARK  105  A    between atoms: _254  and  _255
REMARK  106  A    between atoms: _258  and  _260
REMARK  107  A    between atoms: _260  and  _261
REMARK  108  A    between atoms: _260  and  _263
REMARK  109  A    between atoms: _263  and  _264
REMARK  110  A    between atoms: _264  and  _265
REMARK  111  A    between atoms: _265  and  _266
REMARK  112  A    between atoms: _275  and  _277
REMARK  113  A    between atoms: _277  and  _278
REMARK  114  A    between atoms: _277  and  _280
REMARK  115  A    between atoms: _280  and  _281
REMARK  116  A    between atoms: _284  and  _286
REMARK  117  A    between atoms: _286  and  _287
REMARK  118  A    between atoms: _286  and  _289
REMARK  119  A    between atoms: _289  and  _290
REMARK  120  A    between atoms: _290  and  _291
REMARK  121  A    between atoms: _291  and  _292
REMARK  122  A    between atoms: _301  and  _303
REMARK  123  A    between atoms: _303  and  _304
REMARK  124  A    between atoms: _303  and  _306
REMARK  125  A    between atoms: _306  and  _307
REMARK  126  A    between atoms: _312  and  _314
REMARK  127  A    between atoms: _314  and  _315
REMARK  128  A    between atoms: _314  and  _317
REMARK  129  A    between atoms: _317  and  _318
REMARK  130  A    between atoms: _321  and  _323
REMARK  131  A    between atoms: _323  and  _324
REMARK  132  A    between atoms: _323  and  _326
REMARK  133  A    between atoms: _326  and  _327
REMARK  134  A    between atoms: _330  and  _332
REMARK  135  A    between atoms: _332  and  _333
REMARK  136  A    between atoms: _332  and  _335
REMARK  137  A    between atoms: _335  and  _336
REMARK  138  A    between atoms: _338  and  _340
REMARK  139  A    between atoms: _340  and  _341
REMARK  140  A    between atoms: _340  and  _343
REMARK  141  A    between atoms: _343  and  _344
REMARK  142  A    between atoms: _347  and  _349
REMARK  143  A    between atoms: _349  and  _350
REMARK  144  A    between atoms: _349  and  _352
REMARK  145  A    between atoms: _352  and  _353
REMARK  146  A    between atoms: _353  and  _354
REMARK  147  A    between atoms: _359  and  _361
REMARK  148  A    between atoms: _361  and  _362
REMARK  149  A    between atoms: _365  and  _367
REMARK  150  A    between atoms: _367  and  _368
REMARK  151  A    between atoms: _367  and  _370
REMARK  152  A    between atoms: _370  and  _371
REMARK  153  A    between atoms: _376  and  _377
REMARK  154  A    between atoms: _379  and  _381
REMARK  155  A    between atoms: _381  and  _382
REMARK  156  A    between atoms: _381  and  _384
REMARK  157  A    between atoms: _384  and  _385
REMARK  158  A    between atoms: _385  and  _386
REMARK  159  A    between atoms: _391  and  _393
REMARK  160  A    between atoms: _393  and  _394
REMARK  161  A    between atoms: _396  and  _398
REMARK  162  A    between atoms: _398  and  _399
REMARK  163  A    between atoms: _401  and  _403
REMARK  164  A    between atoms: _403  and  _404
REMARK  165  A    between atoms: _403  and  _406
REMARK  166  A    between atoms: _406  and  _407
REMARK  167  A    between atoms: _407  and  _408
REMARK  168  A    between atoms: _408  and  _409
REMARK  169  A    between atoms: _418  and  _420
REMARK  170  A    between atoms: _420  and  _421
REMARK  171  A    between atoms: _420  and  _423
REMARK  172  A    between atoms: _423  and  _424
REMARK  173  A    between atoms: _427  and  _429
REMARK  174  A    between atoms: _429  and  _430
REMARK  175  A    between atoms: _429  and  _432
REMARK  176  A    between atoms: _435  and  _437
REMARK  177  A    between atoms: _437  and  _438
REMARK  178  A    between atoms: _437  and  _440
REMARK  179  A    between atoms: _443  and  _445
REMARK  180  A    between atoms: _445  and  _446
REMARK  181  A    between atoms: _448  and  _450
REMARK  182  A    between atoms: _450  and  _451
REMARK  183  A    between atoms: _450  and  _453
REMARK  184  A    between atoms: _453  and  _454
REMARK  185  A    between atoms: _454  and  _455
REMARK  186  A    between atoms: _455  and  _456
REMARK  187  A    between atoms: _456  and  _457
REMARK  188  A    between atoms: _461  and  _463
REMARK  189  A    between atoms: _463  and  _464
REMARK  190  A    between atoms: _463  and  _466
REMARK  191  A    between atoms: _466  and  _467
REMARK  192  A    between atoms: _467  and  _468
REMARK  193  A    between atoms: _468  and  _469
REMARK  194  A    between atoms: _478  and  _480
REMARK  195  A    between atoms: _480  and  _481
REMARK  196  A    between atoms: _484  and  _486
REMARK  197  A    between atoms: _486  and  _487
REMARK  198  A    between atoms: _486  and  _489
REMARK  199  A    between atoms: _489  and  _490
REMARK  200  A    between atoms: _490  and  _491
REMARK  201  A    between atoms: _491  and  _492
REMARK  202  A    between atoms: _501  and  _503
REMARK  203  A    between atoms: _503  and  _504
REMARK  204  A    between atoms: _507  and  _509
REMARK  205  A    between atoms: _509  and  _510
REMARK  206  A    between atoms: _509  and  _512
REMARK  207  A    between atoms: _512  and  _513
REMARK  208  A    between atoms: _513  and  _514
REMARK  209  A    between atoms: _514  and  _515
REMARK  210  A    between atoms: _524  and  _526
REMARK  211  A    between atoms: _526  and  _527
REMARK  212  A    between atoms: _529  and  _531
REMARK  213  A    between atoms: _531  and  _532
REMARK  214  A    between atoms: _531  and  _534
REMARK  215  A    between atoms: _534  and  _535
REMARK  216  A    between atoms: _535  and  _536
REMARK  217  A    between atoms: _539  and  _541
REMARK  218  A    between atoms: _541  and  _542
REMARK  219  A    between atoms: _541  and  _544
REMARK  220  A    between atoms: _544  and  _545
REMARK  221  A    between atoms: _548  and  _550
REMARK  222  A    between atoms: _550  and  _551
REMARK  223  A    between atoms: _550  and  _553
REMARK  224  A    between atoms: _553  and  _554
REMARK  225  A    between atoms: _557  and  _559
REMARK  226  A    between atoms: _559  and  _560
REMARK  227  A    between atoms: _559  and  _562
REMARK  228  A    between atoms: _562  and  _563
REMARK  229  A    between atoms: _563  and  _564
REMARK  230  A    between atoms: _564  and  _565
REMARK  231  A    between atoms: _574  and  _576
REMARK  232  A    between atoms: _576  and  _577
REMARK  233  A    between atoms: _576  and  _579
REMARK  234  A    between atoms: _579  and  _580
REMARK  235  A    between atoms: _583  and  _585
REMARK  236  A    between atoms: _585  and  _586
REMARK  237  A    between atoms: _585  and  _588
REMARK  238  A    between atoms: _588  and  _589
REMARK  239  A    between atoms: _589  and  _590
REMARK  240  A    between atoms: _593  and  _595
REMARK  241  A    between atoms: _595  and  _596
REMARK  242  A    between atoms: _595  and  _598
REMARK  243  A    between atoms: _598  and  _599
REMARK  244  A    between atoms: _599  and  _600
REMARK  245  A    between atoms: _605  and  _607
REMARK  246  A    between atoms: _607  and  _608
REMARK  247  A    between atoms: _607  and  _610
REMARK  248  A    between atoms: _610  and  _611
REMARK  249  A    between atoms: _611  and  _612
REMARK  250  A    between atoms: _615  and  _617
REMARK  251  A    between atoms: _617  and  _618
REMARK  252  A    between atoms: _617  and  _620
REMARK  253  A    between atoms: _620  and  _621
REMARK  254  A    between atoms: _627  and  _629
REMARK  255  A    between atoms: _629  and  _630
REMARK  256  A    between atoms: _629  and  _632
REMARK  257  A    between atoms: _632  and  _633
REMARK  258  A    between atoms: _639  and  _641
REMARK  259  A    between atoms: _641  and  _642
REMARK  260  A    between atoms: _641  and  _644
REMARK  261  A    between atoms: _644  and  _645
REMARK  262  A    between atoms: _648  and  _650
REMARK  263  A    between atoms: _650  and  _651
REMARK  264  A    between atoms: _650  and  _653
REMARK  265  A    between atoms: _653  and  _654
REMARK  266  A    between atoms: _659  and  _660
REMARK  267  A    between atoms: _662  and  _664
REMARK  268  A    between atoms: _664  and  _665
REMARK  269  A    between atoms: _668  and  _670
REMARK  270  A    between atoms: _670  and  _671
REMARK  271  A    between atoms: _670  and  _673
REMARK  272  A    between atoms: _673  and  _674
REMARK  273  A    between atoms: _674  and  _675
REMARK  274  A    between atoms: _681  and  _682
REMARK  275  A    between atoms: _687  and  _689
REMARK  276  A    between atoms: _689  and  _690
REMARK  277  A    between atoms: _689  and  _692
REMARK  278  A    between atoms: _692  and  _693
REMARK  279  A    between atoms: _696  and  _698
REMARK  280  A    between atoms: _698  and  _699
REMARK  281  A    between atoms: _698  and  _701
REMARK  282  A    between atoms: _701  and  _702
REMARK  283  A    between atoms: _702  and  _703
REMARK  284  A    between atoms: _706  and  _708
REMARK  285  A    between atoms: _708  and  _709
REMARK  286  A    between atoms: _708  and  _711
REMARK                            x       y       z     vdW  Elec       q    Type
REMARK                         _______ _______ _______ _____ _____    ______ ____
ROOT
ATOM      1  CA  VAL A   1      27.803 122.785  15.542  0.00  0.00    +0.133 C 
ENDROOT
BRANCH   1   2
ATOM      2  CB  VAL A   1      26.773 121.797  16.132  0.00  0.00    +0.023 C 
ATOM      3  CG2 VAL A   1      26.898 121.776  17.631  0.00  0.00    +0.002 C 
ATOM      4  CG1 VAL A   1      26.984 120.390  15.544  0.00  0.00    +0.002 C 
ENDBRANCH   1   2
BRANCH   1   5
ATOM      5  N   VAL A   1      27.606 124.141  16.064  0.00  0.00    -0.239 NA
ATOM      6  H   VAL A   1      26.846 124.319  16.752  0.00  0.00    +0.142 HD
ENDBRANCH   1   5
BRANCH   1   7
ATOM      7  C   VAL A   1      27.667 122.745  14.028  0.00  0.00    +0.224 C 
ATOM      8  O   VAL A   1      28.511 122.180  13.334  0.00  0.00    -0.287 OA
ENDBRANCH   1   7
TORSDOF 3
REMARK  Name = ../refined-set-2016/4tmk/4tmk_pocket.pdb
REMARK  286 active torsions:
REMARK  status: ('A' for Active; 'I' for Inactive)
REMARK    1  A    between atoms: _1  and  _3
REMARK    2  A    between atoms: _3  and  _4
REMARK    3  A    between atoms: _3  and  _6
REMARK    4  A    between atoms: _6  and  _7
REMARK    5  A    between atoms: _10  and  _12
REMARK    6  A    between atoms: _12  and  _13
REMARK    7  A    between atoms: _12  and  _15
REMARK    8  A    between atoms: _15  and  _16
REMARK    9  A    between atoms: _16  and  _17
REMARK   10  A    between atoms: _20  and  _22
REMARK   11  A    between atoms: _22  and  _23
REMARK   12  A    between atoms: _25  and  _27
REMARK   13  A    between atoms: _27  and  _28
REMARK   14  A    between atoms: _27  and  _30
REMARK   15  A    between atoms: _30  and  _31
REMARK   16  A    between atoms: _34  and  _36
REMARK   17  A    between atoms: _36  and  _37
REMARK   18  A    between atoms: _36  and  _39
REMARK   19  A    between atoms: _39  and  _40
REMARK   20  A    between atoms: _40  and  _41
REMARK   21  A    between atoms: _44  and  _46
REMARK   22  A    between atoms: _46  and  _47
REMARK   23  A    between atoms: _49  and  _51
REMARK   24  A    between atoms: _51  and  _52
REMARK   25  A    between atoms: _55  and  _57
REMARK   26  A    between atoms: _57  and  _58
REMARK   27  A    between atoms: _60  and  _62
REMARK   28  A    between atoms: _62  and  _63
REMARK   29  A    between atoms: _62  and  _65
REMARK   30  A    between atoms: _65  and  _66
REMARK   31  A    between atoms: _66  and  _67
REMARK   32  A    between atoms: _67  and  _68
REMARK   33  A    between atoms: _68  and  _69
REMARK   34  A    between atoms: _73  and  _75
REMARK   35  A    between atoms: _75  and  _76
REMARK   36  A    between atoms: _75  and  _78
REMARK   37  A    between atoms: _78  and  _79
REMARK   38  A    between atoms: _82  and  _84
REMARK   39  A    between atoms: _84  and  _85
REMARK   40  A    between atoms: _84  and  _87
REMARK   41  A    between atoms: _87  and  _88
REMARK   42  A    between atoms: _91  and  _93
REMARK   43  A    between atoms: _93  and  _94
REMARK   44  A    between atoms: _97  and  _99
REMARK   45  A    between atoms: _99  and  _100
REMARK   46  A    between atoms: _99  and  _102
REMARK   47  A    between atoms: _102  and  _103
REMARK   48  A    between atoms: _103  and  _104
REMARK   49  A    between atoms: _104  and  _105
REMARK   50  A    between atoms: _114  and  _116
REMARK   51  A    between atoms: _116  and  _117
REMARK   52  A    between atoms: _116  and  _119
REMARK   53  A    between atoms: _119  and  _120
REMARK   54  A    between atoms: _125  and  _127
REMARK   55  A    between atoms: _127  and  _128
REMARK   56  A    between atoms: _127  and  _130
REMARK   57  A    between atoms: _130  and  _131
REMARK   58  A    between atoms: _131  and  _132
REMARK   59  A    between atoms: _132  and  _133
REMARK   60  A    between atoms: _142  and  _144
REMARK   61  A    between atoms: _144  and  _145
REMARK   62  A    between atoms: _144  and  _147
REMARK   63  A    between atoms: _147  and  _148
REMARK   64  A    between atoms: _148  and  _149
REMARK   65  A    between atoms: _153  and  _154
REMARK   66  A    between atoms: _159  and  _161
REMARK   67  A    between atoms: _161  and  _162
REMARK   68  A    between atoms: _164  and  _166
REMARK   69  A    between atoms: _166  and  _167
REMARK   70  A    between atoms: _166  and  _169
REMARK   71  A    between atoms: _169  and  _170
REMARK   72  A    between atoms: _170  and  _171
REMARK   73  A    between atoms: _171  and  _172
REMARK   74  A    between atoms: _181  and  _183
REMARK   75  A    between atoms: _183  and  _184
REMARK   76  A    between atoms: _183  and  _186
REMARK   77  A    between atoms: _186  and  _187
REMARK   78  A    between atoms: _190  and  _192
REMARK   79  A    between atoms: _192  and  _193
REMARK   80  A    between atoms: _192  and  _195
REMARK   81  A    between atoms: _195  and  _196
REMARK   82  A    between atoms: _199  and  _201
REMARK   83  A    between atoms: _201  and  _202
REMARK   84  A    between atoms: _201  and  _204
REMARK   85  A    between atoms: _204  and  _205
REMARK   86  A    between atoms: _205  and  _206
REMARK   87  A    between atoms: _209  and  _211
REMARK   88  A    between atoms: _211  and  _212
REMARK   89  A    between atoms: _211  and  _214
REMARK   90  A    between atoms: _217  and  _219
REMARK   91  A    between atoms: _219  and  _220
REMARK   92  A    between atoms: _219  and  _222
REMARK   93  A    between atoms: _222  and  _223
REMARK   94  A    between atoms: _223  and  _224
REMARK   95  A    between atoms: _226  and  _228
REMARK   96  A    between atoms: _228  and  _229
REMARK   97  A    between atoms: _228  and  _231
REMARK   98  A    between atoms: _231  and  _232
REMARK   99  A    between atoms: _238  and  _240
REMARK  100  A    between atoms: _240  and  _241
REMARK  101  A    between atoms: _240  and  _243
REMARK  102  A    between atoms: _243  and  _244
REMARK  103  A    between atoms: _249  and  _250
REMARK  104  A    between atoms: _252  and  _254
REMARK  105  A    between atoms: _254  and  _255
REMARK  106  A    between atoms: _258  and  _260
REMARK  107  A    between atoms: _260  and  _261
REMARK  108  A    between atoms: _260  and  _263
REMARK  109  A    between atoms: _263  and  _264
REMARK  110  A    between atoms: _264  and  _265
REMARK  111  A    between atoms: _265  and  _266
REMARK  112  A    between atoms: _275  and  _277
REMARK  113  A    between atoms: _277  and  _278
REMARK  114  A    between atoms: _277  and  _280
REMARK  115  A    between atoms: _280  and  _281
REMARK  116  A    between atoms: _284  and  _286
REMARK  117  A    between atoms: _286  and  _287
REMARK  118  A    between atoms: _286  and  _289
REMARK  119  A    between atoms: _289  and  _290
REMARK  120  A    between atoms: _290  and  _291
REMARK  121  A    between atoms: _291  and  _292
REMARK  122  A    between atoms: _301  and  _303
REMARK  123  A    between atoms: _303  and  _304
REMARK  124  A    between atoms: _303  and  _306
REMARK  125  A    between atoms: _306  and  _307
REMARK  126  A    between atoms: _312  and  _314
REMARK  127  A    between atoms: _314  and  _315
REMARK  128  A    between atoms: _314  and  _317
REMARK  129  A    between atoms: _317  and  _318
REMARK  130  A    between atoms: _321  and  _323
REMARK  131  A    between atoms: _323  and  _324
REMARK  132  A    between atoms: _323  and  _326
REMARK  133  A    between atoms: _326  and  _327
REMARK  134  A    between atoms: _330  and  _332
REMARK  135  A    between atoms: _332  and  _333
REMARK  136  A    between atoms: _332  and  _335
REMARK  137  A    between atoms: _335  and  _336
REMARK  138  A    between atoms: _338  and  _340
REMARK  139  A    between atoms: _340  and  _341
REMARK  140  A    between atoms: _340  and  _343
REMARK  141  A    between atoms: _343  and  _344
REMARK  142  A    between atoms: _347  and  _349
REMARK  143  A    between atoms: _349  and  _350
REMARK  144  A    between atoms: _349  and  _352
REMARK  145  A    between atoms: _352  and  _353
REMARK  146  A    between atoms: _353  and  _354
REMARK  147  A    between atoms: _359  and  _361
REMARK  148  A    between atoms: _361  and  _362
REMARK  149  A    between atoms: _365  and  _367
REMARK  150  A    between atoms: _367  and  _368
REMARK  151  A    between atoms: _367  and  _370
REMARK  152  A    between atoms: _370  and  _371
REMARK  153  A    between atoms: _376  and  _377
REMARK  154  A    between atoms: _379  and  _381
REMARK  155  A    between atoms: _381  and  _382
REMARK  156  A    between atoms: _381  and  _384
REMARK  157  A    between atoms: _384  and  _385
REMARK  158  A    between atoms: _385  and  _386
REMARK  159  A    between atoms: _391  and  _393
REMARK  160  A    between atoms: _393  and  _394
REMARK  161  A    between atoms: _396  and  _398
REMARK  162  A    between atoms: _398  and  _399
REMARK  163  A    between atoms: _401  and  _403
REMARK  164  A    between atoms: _403  and  _404
REMARK  165  A    between atoms: _403  and  _406
REMARK  166  A    between atoms: _406  and  _407
REMARK  167  A    between atoms: _407  and  _408
REMARK  168  A    between atoms: _408  and  _409
REMARK  169  A    between atoms: _418  and  _420
REMARK  170  A    between atoms: _420  and  _421
REMARK  171  A    between atoms: _420  and  _423
REMARK  172  A    between atoms: _423  and  _424
REMARK  173  A    between atoms: _427  and  _429
REMARK  174  A    between atoms: _429  and  _430
REMARK  175  A    between atoms: _429  and  _432
REMARK  176  A    between atoms: _435  and  _437
REMARK  177  A    between atoms: _437  and  _438
REMARK  178  A    between atoms: _437  and  _440
REMARK  179  A    between atoms: _443  and  _445
REMARK  180  A    between atoms: _445  and  _446
REMARK  181  A    between atoms: _448  and  _450
REMARK  182  A    between atoms: _450  and  _451
REMARK  183  A    between atoms: _450  and  _453
REMARK  184  A    between atoms: _453  and  _454
REMARK  185  A    between atoms: _454  and  _455
REMARK  186  A    between atoms: _455  and  _456
REMARK  187  A    between atoms: _456  and  _457
REMARK  188  A    between atoms: _461  and  _463
REMARK  189  A    between atoms: _463  and  _464
REMARK  190  A    between atoms: _463  and  _466
REMARK  191  A    between atoms: _466  and  _467
REMARK  192  A    between atoms: _467  and  _468
REMARK  193  A    between atoms: _468  and  _469
REMARK  194  A    between atoms: _478  and  _480
REMARK  195  A    between atoms: _480  and  _481
REMARK  196  A    between atoms: _484  and  _486
REMARK  197  A    between atoms: _486  and  _487
REMARK  198  A    between atoms: _486  and  _489
REMARK  199  A    between atoms: _489  and  _490
REMARK  200  A    between atoms: _490  and  _491
REMARK  201  A    between atoms: _491  and  _492
REMARK  202  A    between atoms: _501  and  _503
REMARK  203  A    between atoms: _503  and  _504
REMARK  204  A    between atoms: _507  and  _509
REMARK  205  A    between atoms: _509  and  _510
REMARK  206  A    between atoms: _509  and  _512
REMARK  207  A    between atoms: _512  and  _513
REMARK  208  A    between atoms: _513  and  _514
REMARK  209  A    between atoms: _514  and  _515
REMARK  210  A    between atoms: _524  and  _526
REMARK  211  A    between atoms: _526  and  _527
REMARK  212  A    between atoms: _529  and  _531
REMARK  213  A    between atoms: _531  and  _532
REMARK  214  A    between atoms: _531  and  _534
REMARK  215  A    between atoms: _534  and  _535
REMARK  216  A    between atoms: _535  and  _536
REMARK  217  A    between atoms: _539  and  _541
REMARK  218  A    between atoms: _541  and  _542
REMARK  219  A    between atoms: _541  and  _544
REMARK  220  A    between atoms: _544  and  _545
REMARK  221  A    between atoms: _548  and  _550
REMARK  222  A    between atoms: _550  and  _551
REMARK  223  A    between atoms: _550  and  _553
REMARK  224  A    between atoms: _553  and  _554
REMARK  225  A    between atoms: _557  and  _559
REMARK  226  A    between atoms: _559  and  _560
REMARK  227  A    between atoms: _559  and  _562
REMARK  228  A    between atoms: _562  and  _563
REMARK  229  A    between atoms: _563  and  _564
REMARK  230  A    between atoms: _564  and  _565
REMARK  231  A    between atoms: _574  and  _576
REMARK  232  A    between atoms: _576  and  _577
REMARK  233  A    between atoms: _576  and  _579
REMARK  234  A    between atoms: _579  and  _580
REMARK  235  A    between atoms: _583  and  _585
REMARK  236  A    between atoms: _585  and  _586
REMARK  237  A    between atoms: _585  and  _588
REMARK  238  A    between atoms: _588  and  _589
REMARK  239  A    between atoms: _589  and  _590
REMARK  240  A    between atoms: _593  and  _595
REMARK  241  A    between atoms: _595  and  _596
REMARK  242  A    between atoms: _595  and  _598
REMARK  243  A    between atoms: _598  and  _599
REMARK  244  A    between atoms: _599  and  _600
REMARK  245  A    between atoms: _605  and  _607
REMARK  246  A    between atoms: _607  and  _608
REMARK  247  A    between atoms: _607  and  _610
REMARK  248  A    between atoms: _610  and  _611
REMARK  249  A    between atoms: _611  and  _612
REMARK  250  A    between atoms: _615  and  _617
REMARK  251  A    between atoms: _617  and  _618
REMARK  252  A    between atoms: _617  and  _620
REMARK  253  A    between atoms: _620  and  _621
REMARK  254  A    between atoms: _627  and  _629
REMARK  255  A    between atoms: _629  and  _630
REMARK  256  A    between atoms: _629  and  _632
REMARK  257  A    between atoms: _632  and  _633
REMARK  258  A    between atoms: _639  and  _641
REMARK  259  A    between atoms: _641  and  _642
REMARK  260  A    between atoms: _641  and  _644
REMARK  261  A    between atoms: _644  and  _645
REMARK  262  A    between atoms: _648  and  _650
REMARK  263  A    between atoms: _650  and  _651
REMARK  264  A    between atoms: _650  and  _653
REMARK  265  A    between atoms: _653  and  _654
REMARK  266  A    between atoms: _659  and  _660
REMARK  267  A    between atoms: _662  and  _664
REMARK  268  A    between atoms: _664  and  _665
REMARK  269  A    between atoms: _668  and  _670
REMARK  270  A    between atoms: _670  and  _671
REMARK  271  A    between atoms: _670  and  _673
REMARK  272  A    between atoms: _673  and  _674
REMARK  273  A    between atoms: _674  and  _675
REMARK  274  A    between atoms: _681  and  _682
REMARK  275  A    between atoms: _687  and  _689
REMARK  276  A    between atoms: _689  and  _690
REMARK  277  A    between atoms: _689  and  _692
REMARK  278  A    between atoms: _692  and  _693
REMARK  279  A    between atoms: _696  and  _698
REMARK  280  A    between atoms: _698  and  _699
REMARK  281  A    between atoms: _698  and  _701
REMARK  282  A    between atoms: _701  and  _702
REMARK  283  A    between atoms: _702  and  _703
REMARK  284  A    between atoms: _706  and  _708
REMARK  285  A    between atoms: _708  and  _709
REMARK  286  A    between atoms: _708  and  _711
REMARK                            x       y       z     vdW  Elec       q    Type
REMARK                         _______ _______ _______ _____ _____    ______ ____
ROOT
ATOM      1  O   HOH     1      14.714 101.129  16.604  0.00  0.00    +0.000 OA
ENDROOT
TORSDOF 0
REMARK  Name = ../refined-set-2016/4tmk/4tmk_pocket.pdb
REMARK  286 active torsions:
REMARK  status: ('A' for Active; 'I' for Inactive)
REMARK    1  A    between atoms: _1  and  _3
REMARK    2  A    between atoms: _3  and  _4
REMARK    3  A    between atoms: _3  and  _6
REMARK    4  A    between atoms: _6  and  _7
REMARK    5  A    between atoms: _10  and  _12
REMARK    6  A    between atoms: _12  and  _13
REMARK    7  A    between atoms: _12  and  _15
REMARK    8  A    between atoms: _15  and  _16
REMARK    9  A    between atoms: _16  and  _17
REMARK   10  A    between atoms: _20  and  _22
REMARK   11  A    between atoms: _22  and  _23
REMARK   12  A    between atoms: _25  and  _27
REMARK   13  A    between atoms: _27  and  _28
REMARK   14  A    between atoms: _27  and  _30
REMARK   15  A    between atoms: _30  and  _31
REMARK   16  A    between atoms: _34  and  _36
REMARK   17  A    between atoms: _36  and  _37
REMARK   18  A    between atoms: _36  and  _39
REMARK   19  A    between atoms: _39  and  _40
REMARK   20  A    between atoms: _40  and  _41
REMARK   21  A    between atoms: _44  and  _46
REMARK   22  A    between atoms: _46  and  _47
REMARK   23  A    between atoms: _49  and  _51
REMARK   24  A    between atoms: _51  and  _52
REMARK   25  A    between atoms: _55  and  _57
REMARK   26  A    between atoms: _57  and  _58
REMARK   27  A    between atoms: _60  and  _62
REMARK   28  A    between atoms: _62  and  _63
REMARK   29  A    between atoms: _62  and  _65
REMARK   30  A    between atoms: _65  and  _66
REMARK   31  A    between atoms: _66  and  _67
REMARK   32  A    between atoms: _67  and  _68
REMARK   33  A    between atoms: _68  and  _69
REMARK   34  A    between atoms: _73  and  _75
REMARK   35  A    between atoms: _75  and  _76
REMARK   36  A    between atoms: _75  and  _78
REMARK   37  A    between atoms: _78  and  _79
REMARK   38  A    between atoms: _82  and  _84
REMARK   39  A    between atoms: _84  and  _85
REMARK   40  A    between atoms: _84  and  _87
REMARK   41  A    between atoms: _87  and  _88
REMARK   42  A    between atoms: _91  and  _93
REMARK   43  A    between atoms: _93  and  _94
REMARK   44  A    between atoms: _97  and  _99
REMARK   45  A    between atoms: _99  and  _100
REMARK   46  A    between atoms: _99  and  _102
REMARK   47  A    between atoms: _102  and  _103
REMARK   48  A    between atoms: _103  and  _104
REMARK   49  A    between atoms: _104  and  _105
REMARK   50  A    between atoms: _114  and  _116
REMARK   51  A    between atoms: _116  and  _117
REMARK   52  A    between atoms: _116  and  _119
REMARK   53  A    between atoms: _119  and  _120
REMARK   54  A    between atoms: _125  and  _127
REMARK   55  A    between atoms: _127  and  _128
REMARK   56  A    between atoms: _127  and  _130
REMARK   57  A    between atoms: _130  and  _131
REMARK   58  A    between atoms: _131  and  _132
REMARK   59  A    between atoms: _132  and  _133
REMARK   60  A    between atoms: _142  and  _144
REMARK   61  A    between atoms: _144  and  _145
REMARK   62  A    between atoms: _144  and  _147
REMARK   63  A    between atoms: _147  and  _148
REMARK   64  A    between atoms: _148  and  _149
REMARK   65  A    between atoms: _153  and  _154
REMARK   66  A    between atoms: _159  and  _161
REMARK   67  A    between atoms: _161  and  _162
REMARK   68  A    between atoms: _164  and  _166
REMARK   69  A    between atoms: _166  and  _167
REMARK   70  A    between atoms: _166  and  _169
REMARK   71  A    between atoms: _169  and  _170
REMARK   72  A    between atoms: _170  and  _171
REMARK   73  A    between atoms: _171  and  _172
REMARK   74  A    between atoms: _181  and  _183
REMARK   75  A    between atoms: _183  and  _184
REMARK   76  A    between atoms: _183  and  _186
REMARK   77  A    between atoms: _186  and  _187
REMARK   78  A    between atoms: _190  and  _192
REMARK   79  A    between atoms: _192  and  _193
REMARK   80  A    between atoms: _192  and  _195
REMARK   81  A    between atoms: _195  and  _196
REMARK   82  A    between atoms: _199  and  _201
REMARK   83  A    between atoms: _201  and  _202
REMARK   84  A    between atoms: _201  and  _204
REMARK   85  A    between atoms: _204  and  _205
REMARK   86  A    between atoms: _205  and  _206
REMARK   87  A    between atoms: _209  and  _211
REMARK   88  A    between atoms: _211  and  _212
REMARK   89  A    between atoms: _211  and  _214
REMARK   90  A    between atoms: _217  and  _219
REMARK   91  A    between atoms: _219  and  _220
REMARK   92  A    between atoms: _219  and  _222
REMARK   93  A    between atoms: _222  and  _223
REMARK   94  A    between atoms: _223  and  _224
REMARK   95  A    between atoms: _226  and  _228
REMARK   96  A    between atoms: _228  and  _229
REMARK   97  A    between atoms: _228  and  _231
REMARK   98  A    between atoms: _231  and  _232
REMARK   99  A    between atoms: _238  and  _240
REMARK  100  A    between atoms: _240  and  _241
REMARK  101  A    between atoms: _240  and  _243
REMARK  102  A    between atoms: _243  and  _244
REMARK  103  A    between atoms: _249  and  _250
REMARK  104  A    between atoms: _252  and  _254
REMARK  105  A    between atoms: _254  and  _255
REMARK  106  A    between atoms: _258  and  _260
REMARK  107  A    between atoms: _260  and  _261
REMARK  108  A    between atoms: _260  and  _263
REMARK  109  A    between atoms: _263  and  _264
REMARK  110  A    between atoms: _264  and  _265
REMARK  111  A    between atoms: _265  and  _266
REMARK  112  A    between atoms: _275  and  _277
REMARK  113  A    between atoms: _277  and  _278
REMARK  114  A    between atoms: _277  and  _280
REMARK  115  A    between atoms: _280  and  _281
REMARK  116  A    between atoms: _284  and  _286
REMARK  117  A    between atoms: _286  and  _287
REMARK  118  A    between atoms: _286  and  _289
REMARK  119  A    between atoms: _289  and  _290
REMARK  120  A    between atoms: _290  and  _291
REMARK  121  A    between atoms: _291  and  _292
REMARK  122  A    between atoms: _301  and  _303
REMARK  123  A    between atoms: _303  and  _304
REMARK  124  A    between atoms: _303  and  _306
REMARK  125  A    between atoms: _306  and  _307
REMARK  126  A    between atoms: _312  and  _314
REMARK  127  A    between atoms: _314  and  _315
REMARK  128  A    between atoms: _314  and  _317
REMARK  129  A    between atoms: _317  and  _318
REMARK  130  A    between atoms: _321  and  _323
REMARK  131  A    between atoms: _323  and  _324
REMARK  132  A    between atoms: _323  and  _326
REMARK  133  A    between atoms: _326  and  _327
REMARK  134  A    between atoms: _330  and  _332
REMARK  135  A    between atoms: _332  and  _333
REMARK  136  A    between atoms: _332  and  _335
REMARK  137  A    between atoms: _335  and  _336
REMARK  138  A    between atoms: _338  and  _340
REMARK  139  A    between atoms: _340  and  _341
REMARK  140  A    between atoms: _340  and  _343
REMARK  141  A    between atoms: _343  and  _344
REMARK  142  A    between atoms: _347  and  _349
REMARK  143  A    between atoms: _349  and  _350
REMARK  144  A    between atoms: _349  and  _352
REMARK  145  A    between atoms: _352  and  _353
REMARK  146  A    between atoms: _353  and  _354
REMARK  147  A    between atoms: _359  and  _361
REMARK  148  A    between atoms: _361  and  _362
REMARK  149  A    between atoms: _365  and  _367
REMARK  150  A    between atoms: _367  and  _368
REMARK  151  A    between atoms: _367  and  _370
REMARK  152  A    between atoms: _370  and  _371
REMARK  153  A    between atoms: _376  and  _377
REMARK  154  A    between atoms: _379  and  _381
REMARK  155  A    between atoms: _381  and  _382
REMARK  156  A    between atoms: _381  and  _384
REMARK  157  A    between atoms: _384  and  _385
REMARK  158  A    between atoms: _385  and  _386
REMARK  159  A    between atoms: _391  and  _393
REMARK  160  A    between atoms: _393  and  _394
REMARK  161  A    between atoms: _396  and  _398
REMARK  162  A    between atoms: _398  and  _399
REMARK  163  A    between atoms: _401  and  _403
REMARK  164  A    between atoms: _403  and  _404
REMARK  165  A    between atoms: _403  and  _406
REMARK  166  A    between atoms: _406  and  _407
REMARK  167  A    between atoms: _407  and  _408
REMARK  168  A    between atoms: _408  and  _409
REMARK  169  A    between atoms: _418  and  _420
REMARK  170  A    between atoms: _420  and  _421
REMARK  171  A    between atoms: _420  and  _423
REMARK  172  A    between atoms: _423  and  _424
REMARK  173  A    between atoms: _427  and  _429
REMARK  174  A    between atoms: _429  and  _430
REMARK  175  A    between atoms: _429  and  _432
REMARK  176  A    between atoms: _435  and  _437
REMARK  177  A    between atoms: _437  and  _438
REMARK  178  A    between atoms: _437  and  _440
REMARK  179  A    between atoms: _443  and  _445
REMARK  180  A    between atoms: _445  and  _446
REMARK  181  A    between atoms: _448  and  _450
REMARK  182  A    between atoms: _450  and  _451
REMARK  183  A    between atoms: _450  and  _453
REMARK  184  A    between atoms: _453  and  _454
REMARK  185  A    between atoms: _454  and  _455
REMARK  186  A    between atoms: _455  and  _456
REMARK  187  A    between atoms: _456  and  _457
REMARK  188  A    between atoms: _461  and  _463
REMARK  189  A    between atoms: _463  and  _464
REMARK  190  A    between atoms: _463  and  _466
REMARK  191  A    between atoms: _466  and  _467
REMARK  192  A    between atoms: _467  and  _468
REMARK  193  A    between atoms: _468  and  _469
REMARK  194  A    between atoms: _478  and  _480
REMARK  195  A    between atoms: _480  and  _481
REMARK  196  A    between atoms: _484  and  _486
REMARK  197  A    between atoms: _486  and  _487
REMARK  198  A    between atoms: _486  and  _489
REMARK  199  A    between atoms: _489  and  _490
REMARK  200  A    between atoms: _490  and  _491
REMARK  201  A    between atoms: _491  and  _492
REMARK  202  A    between atoms: _501  and  _503
REMARK  203  A    between atoms: _503  and  _504
REMARK  204  A    between atoms: _507  and  _509
REMARK  205  A    between atoms: _509  and  _510
REMARK  206  A    between atoms: _509  and  _512
REMARK  207  A    between atoms: _512  and  _513
REMARK  208  A    between atoms: _513  and  _514
REMARK  209  A    between atoms: _514  and  _515
REMARK  210  A    between atoms: _524  and  _526
REMARK  211  A    between atoms: _526  and  _527
REMARK  212  A    between atoms: _529  and  _531
REMARK  213  A    between atoms: _531  and  _532
REMARK  214  A    between atoms: _531  and  _534
REMARK  215  A    between atoms: _534  and  _535
REMARK  216  A    between atoms: _535  and  _536
REMARK  217  A    between atoms: _539  and  _541
REMARK  218  A    between atoms: _541  and  _542
REMARK  219  A    between atoms: _541  and  _544
REMARK  220  A    between atoms: _544  and  _545
REMARK  221  A    between atoms: _548  and  _550
REMARK  222  A    between atoms: _550  and  _551
REMARK  223  A    between atoms: _550  and  _553
REMARK  224  A    between atoms: _553  and  _554
REMARK  225  A    between atoms: _557  and  _559
REMARK  226  A    between atoms: _559  and  _560
REMARK  227  A    between atoms: _559  and  _562
REMARK  228  A    between atoms: _562  and  _563
REMARK  229  A    between atoms: _563  and  _564
REMARK  230  A    between atoms: _564  and  _565
REMARK  231  A    between atoms: _574  and  _576
REMARK  232  A    between atoms: _576  and  _577
REMARK  233  A    between atoms: _576  and  _579
REMARK  234  A    between atoms: _579  and  _580
REMARK  235  A    between atoms: _583  and  _585
REMARK  236  A    between atoms: _585  and  _586
REMARK  237  A    between atoms: _585  and  _588
REMARK  238  A    between atoms: _588  and  _589
REMARK  239  A    between atoms: _589  and  _590
REMARK  240  A    between atoms: _593  and  _595
REMARK  241  A    between atoms: _595  and  _596
REMARK  242  A    between atoms: _595  and  _598
REMARK  243  A    between atoms: _598  and  _599
REMARK  244  A    between atoms: _599  and  _600
REMARK  245  A    between atoms: _605  and  _607
REMARK  246  A    between atoms: _607  and  _608
REMARK  247  A    between atoms: _607  and  _610
REMARK  248  A    between atoms: _610  and  _611
REMARK  249  A    between atoms: _611  and  _612
REMARK  250  A    between atoms: _615  and  _617
REMARK  251  A    between atoms: _617  and  _618
REMARK  252  A    between atoms: _617  and  _620
REMARK  253  A    between atoms: _620  and  _621
REMARK  254  A    between atoms: _627  and  _629
REMARK  255  A    between atoms: _629  and  _630
REMARK  256  A    between atoms: _629  and  _632
REMARK  257  A    between atoms: _632  and  _633
REMARK  258  A    between atoms: _639  and  _641
REMARK  259  A    between atoms: _641  and  _642
REMARK  260  A    between atoms: _641  and  _644
REMARK  261  A    between atoms: _644  and  _645
REMARK  262  A    between atoms: _648  and  _650
REMARK  263  A    between atoms: _650  and  _651
REMARK  264  A    between atoms: _650  and  _653
REMARK  265  A    between atoms: _653  and  _654
REMARK  266  A    between atoms: _659  and  _660
REMARK  267  A    between atoms: _662  and  _664
REMARK  268  A    between atoms: _664  and  _665
REMARK  269  A    between atoms: _668  and  _670
REMARK  270  A    between atoms: _670  and  _671
REMARK  271  A    between atoms: _670  and  _673
REMARK  272  A    between atoms: _673  and  _674
REMARK  273  A    between atoms: _674  and  _675
REMARK  274  A    between atoms: _681  and  _682
REMARK  275  A    between atoms: _687  and  _689
REMARK  276  A    between atoms: _689  and  _690
REMARK  277  A    between atoms: _689  and  _692
REMARK  278  A    between atoms: _692  and  _693
REMARK  279  A    between atoms: _696  and  _698
REMARK  280  A    between atoms: _698  and  _699
REMARK  281  A    between atoms: _698  and  _701
REMARK  282  A    between atoms: _701  and  _702
REMARK  283  A    between atoms: _702  and  _703
REMARK  284  A    between atoms: _706  and  _708
REMARK  285  A    between atoms: _708  and  _709
REMARK  286  A    between atoms: _708  and  _711
REMARK                            x       y       z     vdW  Elec       q    Type
REMARK                         _______ _______ _______ _____ _____    ______ ____
ROOT
ATOM      1  O   HOH     1      16.491 103.207  18.330  0.00  0.00    +0.000 OA
ENDROOT
TORSDOF 0
REMARK  Name = ../refined-set-2016/4tmk/4tmk_pocket.pdb
REMARK  286 active torsions:
REMARK  status: ('A' for Active; 'I' for Inactive)
REMARK    1  A    between atoms: _1  and  _3
REMARK    2  A    between atoms: _3  and  _4
REMARK    3  A    between atoms: _3  and  _6
REMARK    4  A    between atoms: _6  and  _7
REMARK    5  A    between atoms: _10  and  _12
REMARK    6  A    between atoms: _12  and  _13
REMARK    7  A    between atoms: _12  and  _15
REMARK    8  A    between atoms: _15  and  _16
REMARK    9  A    between atoms: _16  and  _17
REMARK   10  A    between atoms: _20  and  _22
REMARK   11  A    between atoms: _22  and  _23
REMARK   12  A    between atoms: _25  and  _27
REMARK   13  A    between atoms: _27  and  _28
REMARK   14  A    between atoms: _27  and  _30
REMARK   15  A    between atoms: _30  and  _31
REMARK   16  A    between atoms: _34  and  _36
REMARK   17  A    between atoms: _36  and  _37
REMARK   18  A    between atoms: _36  and  _39
REMARK   19  A    between atoms: _39  and  _40
REMARK   20  A    between atoms: _40  and  _41
REMARK   21  A    between atoms: _44  and  _46
REMARK   22  A    between atoms: _46  and  _47
REMARK   23  A    between atoms: _49  and  _51
REMARK   24  A    between atoms: _51  and  _52
REMARK   25  A    between atoms: _55  and  _57
REMARK   26  A    between atoms: _57  and  _58
REMARK   27  A    between atoms: _60  and  _62
REMARK   28  A    between atoms: _62  and  _63
REMARK   29  A    between atoms: _62  and  _65
REMARK   30  A    between atoms: _65  and  _66
REMARK   31  A    between atoms: _66  and  _67
REMARK   32  A    between atoms: _67  and  _68
REMARK   33  A    between atoms: _68  and  _69
REMARK   34  A    between atoms: _73  and  _75
REMARK   35  A    between atoms: _75  and  _76
REMARK   36  A    between atoms: _75  and  _78
REMARK   37  A    between atoms: _78  and  _79
REMARK   38  A    between atoms: _82  and  _84
REMARK   39  A    between atoms: _84  and  _85
REMARK   40  A    between atoms: _84  and  _87
REMARK   41  A    between atoms: _87  and  _88
REMARK   42  A    between atoms: _91  and  _93
REMARK   43  A    between atoms: _93  and  _94
REMARK   44  A    between atoms: _97  and  _99
REMARK   45  A    between atoms: _99  and  _100
REMARK   46  A    between atoms: _99  and  _102
REMARK   47  A    between atoms: _102  and  _103
REMARK   48  A    between atoms: _103  and  _104
REMARK   49  A    between atoms: _104  and  _105
REMARK   50  A    between atoms: _114  and  _116
REMARK   51  A    between atoms: _116  and  _117
REMARK   52  A    between atoms: _116  and  _119
REMARK   53  A    between atoms: _119  and  _120
REMARK   54  A    between atoms: _125  and  _127
REMARK   55  A    between atoms: _127  and  _128
REMARK   56  A    between atoms: _127  and  _130
REMARK   57  A    between atoms: _130  and  _131
REMARK   58  A    between atoms: _131  and  _132
REMARK   59  A    between atoms: _132  and  _133
REMARK   60  A    between atoms: _142  and  _144
REMARK   61  A    between atoms: _144  and  _145
REMARK   62  A    between atoms: _144  and  _147
REMARK   63  A    between atoms: _147  and  _148
REMARK   64  A    between atoms: _148  and  _149
REMARK   65  A    between atoms: _153  and  _154
REMARK   66  A    between atoms: _159  and  _161
REMARK   67  A    between atoms: _161  and  _162
REMARK   68  A    between atoms: _164  and  _166
REMARK   69  A    between atoms: _166  and  _167
REMARK   70  A    between atoms: _166  and  _169
REMARK   71  A    between atoms: _169  and  _170
REMARK   72  A    between atoms: _170  and  _171
REMARK   73  A    between atoms: _171  and  _172
REMARK   74  A    between atoms: _181  and  _183
REMARK   75  A    between atoms: _183  and  _184
REMARK   76  A    between atoms: _183  and  _186
REMARK   77  A    between atoms: _186  and  _187
REMARK   78  A    between atoms: _190  and  _192
REMARK   79  A    between atoms: _192  and  _193
REMARK   80  A    between atoms: _192  and  _195
REMARK   81  A    between atoms: _195  and  _196
REMARK   82  A    between atoms: _199  and  _201
REMARK   83  A    between atoms: _201  and  _202
REMARK   84  A    between atoms: _201  and  _204
REMARK   85  A    between atoms: _204  and  _205
REMARK   86  A    between atoms: _205  and  _206
REMARK   87  A    between atoms: _209  and  _211
REMARK   88  A    between atoms: _211  and  _212
REMARK   89  A    between atoms: _211  and  _214
REMARK   90  A    between atoms: _217  and  _219
REMARK   91  A    between atoms: _219  and  _220
REMARK   92  A    between atoms: _219  and  _222
REMARK   93  A    between atoms: _222  and  _223
REMARK   94  A    between atoms: _223  and  _224
REMARK   95  A    between atoms: _226  and  _228
REMARK   96  A    between atoms: _228  and  _229
REMARK   97  A    between atoms: _228  and  _231
REMARK   98  A    between atoms: _231  and  _232
REMARK   99  A    between atoms: _238  and  _240
REMARK  100  A    between atoms: _240  and  _241
REMARK  101  A    between atoms: _240  and  _243
REMARK  102  A    between atoms: _243  and  _244
REMARK  103  A    between atoms: _249  and  _250
REMARK  104  A    between atoms: _252  and  _254
REMARK  105  A    between atoms: _254  and  _255
REMARK  106  A    between atoms: _258  and  _260
REMARK  107  A    between atoms: _260  and  _261
REMARK  108  A    between atoms: _260  and  _263
REMARK  109  A    between atoms: _263  and  _264
REMARK  110  A    between atoms: _264  and  _265
REMARK  111  A    between atoms: _265  and  _266
REMARK  112  A    between atoms: _275  and  _277
REMARK  113  A    between atoms: _277  and  _278
REMARK  114  A    between atoms: _277  and  _280
REMARK  115  A    between atoms: _280  and  _281
REMARK  116  A    between atoms: _284  and  _286
REMARK  117  A    between atoms: _286  and  _287
REMARK  118  A    between atoms: _286  and  _289
REMARK  119  A    between atoms: _289  and  _290
REMARK  120  A    between atoms: _290  and  _291
REMARK  121  A    between atoms: _291  and  _292
REMARK  122  A    between atoms: _301  and  _303
REMARK  123  A    between atoms: _303  and  _304
REMARK  124  A    between atoms: _303  and  _306
REMARK  125  A    between atoms: _306  and  _307
REMARK  126  A    between atoms: _312  and  _314
REMARK  127  A    between atoms: _314  and  _315
REMARK  128  A    between atoms: _314  and  _317
REMARK  129  A    between atoms: _317  and  _318
REMARK  130  A    between atoms: _321  and  _323
REMARK  131  A    between atoms: _323  and  _324
REMARK  132  A    between atoms: _323  and  _326
REMARK  133  A    between atoms: _326  and  _327
REMARK  134  A    between atoms: _330  and  _332
REMARK  135  A    between atoms: _332  and  _333
REMARK  136  A    between atoms: _332  and  _335
REMARK  137  A    between atoms: _335  and  _336
REMARK  138  A    between atoms: _338  and  _340
REMARK  139  A    between atoms: _340  and  _341
REMARK  140  A    between atoms: _340  and  _343
REMARK  141  A    between atoms: _343  and  _344
REMARK  142  A    between atoms: _347  and  _349
REMARK  143  A    between atoms: _349  and  _350
REMARK  144  A    between atoms: _349  and  _352
REMARK  145  A    between atoms: _352  and  _353
REMARK  146  A    between atoms: _353  and  _354
REMARK  147  A    between atoms: _359  and  _361
REMARK  148  A    between atoms: _361  and  _362
REMARK  149  A    between atoms: _365  and  _367
REMARK  150  A    between atoms: _367  and  _368
REMARK  151  A    between atoms: _367  and  _370
REMARK  152  A    between atoms: _370  and  _371
REMARK  153  A    between atoms: _376  and  _377
REMARK  154  A    between atoms: _379  and  _381
REMARK  155  A    between atoms: _381  and  _382
REMARK  156  A    between atoms: _381  and  _384
REMARK  157  A    between atoms: _384  and  _385
REMARK  158  A    between atoms: _385  and  _386
REMARK  159  A    between atoms: _391  and  _393
REMARK  160  A    between atoms: _393  and  _394
REMARK  161  A    between atoms: _396  and  _398
REMARK  162  A    between atoms: _398  and  _399
REMARK  163  A    between atoms: _401  and  _403
REMARK  164  A    between atoms: _403  and  _404
REMARK  165  A    between atoms: _403  and  _406
REMARK  166  A    between atoms: _406  and  _407
REMARK  167  A    between atoms: _407  and  _408
REMARK  168  A    between atoms: _408  and  _409
REMARK  169  A    between atoms: _418  and  _420
REMARK  170  A    between atoms: _420  and  _421
REMARK  171  A    between atoms: _420  and  _423
REMARK  172  A    between atoms: _423  and  _424
REMARK  173  A    between atoms: _427  and  _429
REMARK  174  A    between atoms: _429  and  _430
REMARK  175  A    between atoms: _429  and  _432
REMARK  176  A    between atoms: _435  and  _437
REMARK  177  A    between atoms: _437  and  _438
REMARK  178  A    between atoms: _437  and  _440
REMARK  179  A    between atoms: _443  and  _445
REMARK  180  A    between atoms: _445  and  _446
REMARK  181  A    between atoms: _448  and  _450
REMARK  182  A    between atoms: _450  and  _451
REMARK  183  A    between atoms: _450  and  _453
REMARK  184  A    between atoms: _453  and  _454
REMARK  185  A    between atoms: _454  and  _455
REMARK  186  A    between atoms: _455  and  _456
REMARK  187  A    between atoms: _456  and  _457
REMARK  188  A    between atoms: _461  and  _463
REMARK  189  A    between atoms: _463  and  _464
REMARK  190  A    between atoms: _463  and  _466
REMARK  191  A    between atoms: _466  and  _467
REMARK  192  A    between atoms: _467  and  _468
REMARK  193  A    between atoms: _468  and  _469
REMARK  194  A    between atoms: _478  and  _480
REMARK  195  A    between atoms: _480  and  _481
REMARK  196  A    between atoms: _484  and  _486
REMARK  197  A    between atoms: _486  and  _487
REMARK  198  A    between atoms: _486  and  _489
REMARK  199  A    between atoms: _489  and  _490
REMARK  200  A    between atoms: _490  and  _491
REMARK  201  A    between atoms: _491  and  _492
REMARK  202  A    between atoms: _501  and  _503
REMARK  203  A    between atoms: _503  and  _504
REMARK  204  A    between atoms: _507  and  _509
REMARK  205  A    between atoms: _509  and  _510
REMARK  206  A    between atoms: _509  and  _512
REMARK  207  A    between atoms: _512  and  _513
REMARK  208  A    between atoms: _513  and  _514
REMARK  209  A    between atoms: _514  and  _515
REMARK  210  A    between atoms: _524  and  _526
REMARK  211  A    between atoms: _526  and  _527
REMARK  212  A    between atoms: _529  and  _531
REMARK  213  A    between atoms: _531  and  _532
REMARK  214  A    between atoms: _531  and  _534
REMARK  215  A    between atoms: _534  and  _535
REMARK  216  A    between atoms: _535  and  _536
REMARK  217  A    between atoms: _539  and  _541
REMARK  218  A    between atoms: _541  and  _542
REMARK  219  A    between atoms: _541  and  _544
REMARK  220  A    between atoms: _544  and  _545
REMARK  221  A    between atoms: _548  and  _550
REMARK  222  A    between atoms: _550  and  _551
REMARK  223  A    between atoms: _550  and  _553
REMARK  224  A    between atoms: _553  and  _554
REMARK  225  A    between atoms: _557  and  _559
REMARK  226  A    between atoms: _559  and  _560
REMARK  227  A    between atoms: _559  and  _562
REMARK  228  A    between atoms: _562  and  _563
REMARK  229  A    between atoms: _563  and  _564
REMARK  230  A    between atoms: _564  and  _565
REMARK  231  A    between atoms: _574  and  _576
REMARK  232  A    between atoms: _576  and  _577
REMARK  233  A    between atoms: _576  and  _579
REMARK  234  A    between atoms: _579  and  _580
REMARK  235  A    between atoms: _583  and  _585
REMARK  236  A    between atoms: _585  and  _586
REMARK  237  A    between atoms: _585  and  _588
REMARK  238  A    between atoms: _588  and  _589
REMARK  239  A    between atoms: _589  and  _590
REMARK  240  A    between atoms: _593  and  _595
REMARK  241  A    between atoms: _595  and  _596
REMARK  242  A    between atoms: _595  and  _598
REMARK  243  A    between atoms: _598  and  _599
REMARK  244  A    between atoms: _599  and  _600
REMARK  245  A    between atoms: _605  and  _607
REMARK  246  A    between atoms: _607  and  _608
REMARK  247  A    between atoms: _607  and  _610
REMARK  248  A    between atoms: _610  and  _611
REMARK  249  A    between atoms: _611  and  _612
REMARK  250  A    between atoms: _615  and  _617
REMARK  251  A    between atoms: _617  and  _618
REMARK  252  A    between atoms: _617  and  _620
REMARK  253  A    between atoms: _620  and  _621
REMARK  254  A    between atoms: _627  and  _629
REMARK  255  A    between atoms: _629  and  _630
REMARK  256  A    between atoms: _629  and  _632
REMARK  257  A    between atoms: _632  and  _633
REMARK  258  A    between atoms: _639  and  _641
REMARK  259  A    between atoms: _641  and  _642
REMARK  260  A    between atoms: _641  and  _644
REMARK  261  A    between atoms: _644  and  _645
REMARK  262  A    between atoms: _648  and  _650
REMARK  263  A    between atoms: _650  and  _651
REMARK  264  A    between atoms: _650  and  _653
REMARK  265  A    between atoms: _653  and  _654
REMARK  266  A    between atoms: _659  and  _660
REMARK  267  A    between atoms: _662  and  _664
REMARK  268  A    between atoms: _664  and  _665
REMARK  269  A    between atoms: _668  and  _670
REMARK  270  A    between atoms: _670  and  _671
REMARK  271  A    between atoms: _670  and  _673
REMARK  272  A    between atoms: _673  and  _674
REMARK  273  A    between atoms: _674  and  _675
REMARK  274  A    between atoms: _681  and  _682
REMARK  275  A    between atoms: _687  and  _689
REMARK  276  A    between atoms: _689  and  _690
REMARK  277  A    between atoms: _689  and  _692
REMARK  278  A    between atoms: _692  and  _693
REMARK  279  A    between atoms: _696  and  _698
REMARK  280  A    between atoms: _698  and  _699
REMARK  281  A    between atoms: _698  and  _701
REMARK  282  A    between atoms: _701  and  _702
REMARK  283  A    between atoms: _702  and  _703
REMARK  284  A    between atoms: _706  and  _708
REMARK  285  A    between atoms: _708  and  _709
REMARK  286  A    between atoms: _708  and  _711
REMARK                            x       y       z     vdW  Elec       q    Type
REMARK                         _______ _______ _______ _____ _____    ______ ____
ROOT
ATOM      1  O   HOH     1      16.294 104.724  22.069  0.00  0.00    +0.000 OA
ENDROOT
TORSDOF 0
REMARK  Name = ../refined-set-2016/4tmk/4tmk_pocket.pdb
REMARK  286 active torsions:
REMARK  status: ('A' for Active; 'I' for Inactive)
REMARK    1  A    between atoms: _1  and  _3
REMARK    2  A    between atoms: _3  and  _4
REMARK    3  A    between atoms: _3  and  _6
REMARK    4  A    between atoms: _6  and  _7
REMARK    5  A    between atoms: _10  and  _12
REMARK    6  A    between atoms: _12  and  _13
REMARK    7  A    between atoms: _12  and  _15
REMARK    8  A    between atoms: _15  and  _16
REMARK    9  A    between atoms: _16  and  _17
REMARK   10  A    between atoms: _20  and  _22
REMARK   11  A    between atoms: _22  and  _23
REMARK   12  A    between atoms: _25  and  _27
REMARK   13  A    between atoms: _27  and  _28
REMARK   14  A    between atoms: _27  and  _30
REMARK   15  A    between atoms: _30  and  _31
REMARK   16  A    between atoms: _34  and  _36
REMARK   17  A    between atoms: _36  and  _37
REMARK   18  A    between atoms: _36  and  _39
REMARK   19  A    between atoms: _39  and  _40
REMARK   20  A    between atoms: _40  and  _41
REMARK   21  A    between atoms: _44  and  _46
REMARK   22  A    between atoms: _46  and  _47
REMARK   23  A    between atoms: _49  and  _51
REMARK   24  A    between atoms: _51  and  _52
REMARK   25  A    between atoms: _55  and  _57
REMARK   26  A    between atoms: _57  and  _58
REMARK   27  A    between atoms: _60  and  _62
REMARK   28  A    between atoms: _62  and  _63
REMARK   29  A    between atoms: _62  and  _65
REMARK   30  A    between atoms: _65  and  _66
REMARK   31  A    between atoms: _66  and  _67
REMARK   32  A    between atoms: _67  and  _68
REMARK   33  A    between atoms: _68  and  _69
REMARK   34  A    between atoms: _73  and  _75
REMARK   35  A    between atoms: _75  and  _76
REMARK   36  A    between atoms: _75  and  _78
REMARK   37  A    between atoms: _78  and  _79
REMARK   38  A    between atoms: _82  and  _84
REMARK   39  A    between atoms: _84  and  _85
REMARK   40  A    between atoms: _84  and  _87
REMARK   41  A    between atoms: _87  and  _88
REMARK   42  A    between atoms: _91  and  _93
REMARK   43  A    between atoms: _93  and  _94
REMARK   44  A    between atoms: _97  and  _99
REMARK   45  A    between atoms: _99  and  _100
REMARK   46  A    between atoms: _99  and  _102
REMARK   47  A    between atoms: _102  and  _103
REMARK   48  A    between atoms: _103  and  _104
REMARK   49  A    between atoms: _104  and  _105
REMARK   50  A    between atoms: _114  and  _116
REMARK   51  A    between atoms: _116  and  _117
REMARK   52  A    between atoms: _116  and  _119
REMARK   53  A    between atoms: _119  and  _120
REMARK   54  A    between atoms: _125  and  _127
REMARK   55  A    between atoms: _127  and  _128
REMARK   56  A    between atoms: _127  and  _130
REMARK   57  A    between atoms: _130  and  _131
REMARK   58  A    between atoms: _131  and  _132
REMARK   59  A    between atoms: _132  and  _133
REMARK   60  A    between atoms: _142  and  _144
REMARK   61  A    between atoms: _144  and  _145
REMARK   62  A    between atoms: _144  and  _147
REMARK   63  A    between atoms: _147  and  _148
REMARK   64  A    between atoms: _148  and  _149
REMARK   65  A    between atoms: _153  and  _154
REMARK   66  A    between atoms: _159  and  _161
REMARK   67  A    between atoms: _161  and  _162
REMARK   68  A    between atoms: _164  and  _166
REMARK   69  A    between atoms: _166  and  _167
REMARK   70  A    between atoms: _166  and  _169
REMARK   71  A    between atoms: _169  and  _170
REMARK   72  A    between atoms: _170  and  _171
REMARK   73  A    between atoms: _171  and  _172
REMARK   74  A    between atoms: _181  and  _183
REMARK   75  A    between atoms: _183  and  _184
REMARK   76  A    between atoms: _183  and  _186
REMARK   77  A    between atoms: _186  and  _187
REMARK   78  A    between atoms: _190  and  _192
REMARK   79  A    between atoms: _192  and  _193
REMARK   80  A    between atoms: _192  and  _195
REMARK   81  A    between atoms: _195  and  _196
REMARK   82  A    between atoms: _199  and  _201
REMARK   83  A    between atoms: _201  and  _202
REMARK   84  A    between atoms: _201  and  _204
REMARK   85  A    between atoms: _204  and  _205
REMARK   86  A    between atoms: _205  and  _206
REMARK   87  A    between atoms: _209  and  _211
REMARK   88  A    between atoms: _211  and  _212
REMARK   89  A    between atoms: _211  and  _214
REMARK   90  A    between atoms: _217  and  _219
REMARK   91  A    between atoms: _219  and  _220
REMARK   92  A    between atoms: _219  and  _222
REMARK   93  A    between atoms: _222  and  _223
REMARK   94  A    between atoms: _223  and  _224
REMARK   95  A    between atoms: _226  and  _228
REMARK   96  A    between atoms: _228  and  _229
REMARK   97  A    between atoms: _228  and  _231
REMARK   98  A    between atoms: _231  and  _232
REMARK   99  A    between atoms: _238  and  _240
REMARK  100  A    between atoms: _240  and  _241
REMARK  101  A    between atoms: _240  and  _243
REMARK  102  A    between atoms: _243  and  _244
REMARK  103  A    between atoms: _249  and  _250
REMARK  104  A    between atoms: _252  and  _254
REMARK  105  A    between atoms: _254  and  _255
REMARK  106  A    between atoms: _258  and  _260
REMARK  107  A    between atoms: _260  and  _261
REMARK  108  A    between atoms: _260  and  _263
REMARK  109  A    between atoms: _263  and  _264
REMARK  110  A    between atoms: _264  and  _265
REMARK  111  A    between atoms: _265  and  _266
REMARK  112  A    between atoms: _275  and  _277
REMARK  113  A    between atoms: _277  and  _278
REMARK  114  A    between atoms: _277  and  _280
REMARK  115  A    between atoms: _280  and  _281
REMARK  116  A    between atoms: _284  and  _286
REMARK  117  A    between atoms: _286  and  _287
REMARK  118  A    between atoms: _286  and  _289
REMARK  119  A    between atoms: _289  and  _290
REMARK  120  A    between atoms: _290  and  _291
REMARK  121  A    between atoms: _291  and  _292
REMARK  122  A    between atoms: _301  and  _303
REMARK  123  A    between atoms: _303  and  _304
REMARK  124  A    between atoms: _303  and  _306
REMARK  125  A    between atoms: _306  and  _307
REMARK  126  A    between atoms: _312  and  _314
REMARK  127  A    between atoms: _314  and  _315
REMARK  128  A    between atoms: _314  and  _317
REMARK  129  A    between atoms: _317  and  _318
REMARK  130  A    between atoms: _321  and  _323
REMARK  131  A    between atoms: _323  and  _324
REMARK  132  A    between atoms: _323  and  _326
REMARK  133  A    between atoms: _326  and  _327
REMARK  134  A    between atoms: _330  and  _332
REMARK  135  A    between atoms: _332  and  _333
REMARK  136  A    between atoms: _332  and  _335
REMARK  137  A    between atoms: _335  and  _336
REMARK  138  A    between atoms: _338  and  _340
REMARK  139  A    between atoms: _340  and  _341
REMARK  140  A    between atoms: _340  and  _343
REMARK  141  A    between atoms: _343  and  _344
REMARK  142  A    between atoms: _347  and  _349
REMARK  143  A    between atoms: _349  and  _350
REMARK  144  A    between atoms: _349  and  _352
REMARK  145  A    between atoms: _352  and  _353
REMARK  146  A    between atoms: _353  and  _354
REMARK  147  A    between atoms: _359  and  _361
REMARK  148  A    between atoms: _361  and  _362
REMARK  149  A    between atoms: _365  and  _367
REMARK  150  A    between atoms: _367  and  _368
REMARK  151  A    between atoms: _367  and  _370
REMARK  152  A    between atoms: _370  and  _371
REMARK  153  A    between atoms: _376  and  _377
REMARK  154  A    between atoms: _379  and  _381
REMARK  155  A    between atoms: _381  and  _382
REMARK  156  A    between atoms: _381  and  _384
REMARK  157  A    between atoms: _384  and  _385
REMARK  158  A    between atoms: _385  and  _386
REMARK  159  A    between atoms: _391  and  _393
REMARK  160  A    between atoms: _393  and  _394
REMARK  161  A    between atoms: _396  and  _398
REMARK  162  A    between atoms: _398  and  _399
REMARK  163  A    between atoms: _401  and  _403
REMARK  164  A    between atoms: _403  and  _404
REMARK  165  A    between atoms: _403  and  _406
REMARK  166  A    between atoms: _406  and  _407
REMARK  167  A    between atoms: _407  and  _408
REMARK  168  A    between atoms: _408  and  _409
REMARK  169  A    between atoms: _418  and  _420
REMARK  170  A    between atoms: _420  and  _421
REMARK  171  A    between atoms: _420  and  _423
REMARK  172  A    between atoms: _423  and  _424
REMARK  173  A    between atoms: _427  and  _429
REMARK  174  A    between atoms: _429  and  _430
REMARK  175  A    between atoms: _429  and  _432
REMARK  176  A    between atoms: _435  and  _437
REMARK  177  A    between atoms: _437  and  _438
REMARK  178  A    between atoms: _437  and  _440
REMARK  179  A    between atoms: _443  and  _445
REMARK  180  A    between atoms: _445  and  _446
REMARK  181  A    between atoms: _448  and  _450
REMARK  182  A    between atoms: _450  and  _451
REMARK  183  A    between atoms: _450  and  _453
REMARK  184  A    between atoms: _453  and  _454
REMARK  185  A    between atoms: _454  and  _455
REMARK  186  A    between atoms: _455  and  _456
REMARK  187  A    between atoms: _456  and  _457
REMARK  188  A    between atoms: _461  and  _463
REMARK  189  A    between atoms: _463  and  _464
REMARK  190  A    between atoms: _463  and  _466
REMARK  191  A    between atoms: _466  and  _467
REMARK  192  A    between atoms: _467  and  _468
REMARK  193  A    between atoms: _468  and  _469
REMARK  194  A    between atoms: _478  and  _480
REMARK  195  A    between atoms: _480  and  _481
REMARK  196  A    between atoms: _484  and  _486
REMARK  197  A    between atoms: _486  and  _487
REMARK  198  A    between atoms: _486  and  _489
REMARK  199  A    between atoms: _489  and  _490
REMARK  200  A    between atoms: _490  and  _491
REMARK  201  A    between atoms: _491  and  _492
REMARK  202  A    between atoms: _501  and  _503
REMARK  203  A    between atoms: _503  and  _504
REMARK  204  A    between atoms: _507  and  _509
REMARK  205  A    between atoms: _509  and  _510
REMARK  206  A    between atoms: _509  and  _512
REMARK  207  A    between atoms: _512  and  _513
REMARK  208  A    between atoms: _513  and  _514
REMARK  209  A    between atoms: _514  and  _515
REMARK  210  A    between atoms: _524  and  _526
REMARK  211  A    between atoms: _526  and  _527
REMARK  212  A    between atoms: _529  and  _531
REMARK  213  A    between atoms: _531  and  _532
REMARK  214  A    between atoms: _531  and  _534
REMARK  215  A    between atoms: _534  and  _535
REMARK  216  A    between atoms: _535  and  _536
REMARK  217  A    between atoms: _539  and  _541
REMARK  218  A    between atoms: _541  and  _542
REMARK  219  A    between atoms: _541  and  _544
REMARK  220  A    between atoms: _544  and  _545
REMARK  221  A    between atoms: _548  and  _550
REMARK  222  A    between atoms: _550  and  _551
REMARK  223  A    between atoms: _550  and  _553
REMARK  224  A    between atoms: _553  and  _554
REMARK  225  A    between atoms: _557  and  _559
REMARK  226  A    between atoms: _559  and  _560
REMARK  227  A    between atoms: _559  and  _562
REMARK  228  A    between atoms: _562  and  _563
REMARK  229  A    between atoms: _563  and  _564
REMARK  230  A    between atoms: _564  and  _565
REMARK  231  A    between atoms: _574  and  _576
REMARK  232  A    between atoms: _576  and  _577
REMARK  233  A    between atoms: _576  and  _579
REMARK  234  A    between atoms: _579  and  _580
REMARK  235  A    between atoms: _583  and  _585
REMARK  236  A    between atoms: _585  and  _586
REMARK  237  A    between atoms: _585  and  _588
REMARK  238  A    between atoms: _588  and  _589
REMARK  239  A    between atoms: _589  and  _590
REMARK  240  A    between atoms: _593  and  _595
REMARK  241  A    between atoms: _595  and  _596
REMARK  242  A    between atoms: _595  and  _598
REMARK  243  A    between atoms: _598  and  _599
REMARK  244  A    between atoms: _599  and  _600
REMARK  245  A    between atoms: _605  and  _607
REMARK  246  A    between atoms: _607  and  _608
REMARK  247  A    between atoms: _607  and  _610
REMARK  248  A    between atoms: _610  and  _611
REMARK  249  A    between atoms: _611  and  _612
REMARK  250  A    between atoms: _615  and  _617
REMARK  251  A    between atoms: _617  and  _618
REMARK  252  A    between atoms: _617  and  _620
REMARK  253  A    between atoms: _620  and  _621
REMARK  254  A    between atoms: _627  and  _629
REMARK  255  A    between atoms: _629  and  _630
REMARK  256  A    between atoms: _629  and  _632
REMARK  257  A    between atoms: _632  and  _633
REMARK  258  A    between atoms: _639  and  _641
REMARK  259  A    between atoms: _641  and  _642
REMARK  260  A    between atoms: _641  and  _644
REMARK  261  A    between atoms: _644  and  _645
REMARK  262  A    between atoms: _648  and  _650
REMARK  263  A    between atoms: _650  and  _651
REMARK  264  A    between atoms: _650  and  _653
REMARK  265  A    between atoms: _653  and  _654
REMARK  266  A    between atoms: _659  and  _660
REMARK  267  A    between atoms: _662  and  _664
REMARK  268  A    between atoms: _664  and  _665
REMARK  269  A    between atoms: _668  and  _670
REMARK  270  A    between atoms: _670  and  _671
REMARK  271  A    between atoms: _670  and  _673
REMARK  272  A    between atoms: _673  and  _674
REMARK  273  A    between atoms: _674  and  _675
REMARK  274  A    between atoms: _681  and  _682
REMARK  275  A    between atoms: _687  and  _689
REMARK  276  A    between atoms: _689  and  _690
REMARK  277  A    between atoms: _689  and  _692
REMARK  278  A    between atoms: _692  and  _693
REMARK  279  A    between atoms: _696  and  _698
REMARK  280  A    between atoms: _698  and  _699
REMARK  281  A    between atoms: _698  and  _701
REMARK  282  A    between atoms: _701  and  _702
REMARK  283  A    between atoms: _702  and  _703
REMARK  284  A    between atoms: _706  and  _708
REMARK  285  A    between atoms: _708  and  _709
REMARK  286  A    between atoms: _708  and  _711
REMARK                            x       y       z     vdW  Elec       q    Type
REMARK                         _______ _______ _______ _____ _____    ______ ____
ROOT
ATOM      1  O   HOH     1      14.271 106.634  22.001  0.00  0.00    +0.000 OA
ENDROOT
TORSDOF 0
REMARK  Name = ../refined-set-2016/4tmk/4tmk_pocket.pdb
REMARK  286 active torsions:
REMARK  status: ('A' for Active; 'I' for Inactive)
REMARK    1  A    between atoms: _1  and  _3
REMARK    2  A    between atoms: _3  and  _4
REMARK    3  A    between atoms: _3  and  _6
REMARK    4  A    between atoms: _6  and  _7
REMARK    5  A    between atoms: _10  and  _12
REMARK    6  A    between atoms: _12  and  _13
REMARK    7  A    between atoms: _12  and  _15
REMARK    8  A    between atoms: _15  and  _16
REMARK    9  A    between atoms: _16  and  _17
REMARK   10  A    between atoms: _20  and  _22
REMARK   11  A    between atoms: _22  and  _23
REMARK   12  A    between atoms: _25  and  _27
REMARK   13  A    between atoms: _27  and  _28
REMARK   14  A    between atoms: _27  and  _30
REMARK   15  A    between atoms: _30  and  _31
REMARK   16  A    between atoms: _34  and  _36
REMARK   17  A    between atoms: _36  and  _37
REMARK   18  A    between atoms: _36  and  _39
REMARK   19  A    between atoms: _39  and  _40
REMARK   20  A    between atoms: _40  and  _41
REMARK   21  A    between atoms: _44  and  _46
REMARK   22  A    between atoms: _46  and  _47
REMARK   23  A    between atoms: _49  and  _51
REMARK   24  A    between atoms: _51  and  _52
REMARK   25  A    between atoms: _55  and  _57
REMARK   26  A    between atoms: _57  and  _58
REMARK   27  A    between atoms: _60  and  _62
REMARK   28  A    between atoms: _62  and  _63
REMARK   29  A    between atoms: _62  and  _65
REMARK   30  A    between atoms: _65  and  _66
REMARK   31  A    between atoms: _66  and  _67
REMARK   32  A    between atoms: _67  and  _68
REMARK   33  A    between atoms: _68  and  _69
REMARK   34  A    between atoms: _73  and  _75
REMARK   35  A    between atoms: _75  and  _76
REMARK   36  A    between atoms: _75  and  _78
REMARK   37  A    between atoms: _78  and  _79
REMARK   38  A    between atoms: _82  and  _84
REMARK   39  A    between atoms: _84  and  _85
REMARK   40  A    between atoms: _84  and  _87
REMARK   41  A    between atoms: _87  and  _88
REMARK   42  A    between atoms: _91  and  _93
REMARK   43  A    between atoms: _93  and  _94
REMARK   44  A    between atoms: _97  and  _99
REMARK   45  A    between atoms: _99  and  _100
REMARK   46  A    between atoms: _99  and  _102
REMARK   47  A    between atoms: _102  and  _103
REMARK   48  A    between atoms: _103  and  _104
REMARK   49  A    between atoms: _104  and  _105
REMARK   50  A    between atoms: _114  and  _116
REMARK   51  A    between atoms: _116  and  _117
REMARK   52  A    between atoms: _116  and  _119
REMARK   53  A    between atoms: _119  and  _120
REMARK   54  A    between atoms: _125  and  _127
REMARK   55  A    between atoms: _127  and  _128
REMARK   56  A    between atoms: _127  and  _130
REMARK   57  A    between atoms: _130  and  _131
REMARK   58  A    between atoms: _131  and  _132
REMARK   59  A    between atoms: _132  and  _133
REMARK   60  A    between atoms: _142  and  _144
REMARK   61  A    between atoms: _144  and  _145
REMARK   62  A    between atoms: _144  and  _147
REMARK   63  A    between atoms: _147  and  _148
REMARK   64  A    between atoms: _148  and  _149
REMARK   65  A    between atoms: _153  and  _154
REMARK   66  A    between atoms: _159  and  _161
REMARK   67  A    between atoms: _161  and  _162
REMARK   68  A    between atoms: _164  and  _166
REMARK   69  A    between atoms: _166  and  _167
REMARK   70  A    between atoms: _166  and  _169
REMARK   71  A    between atoms: _169  and  _170
REMARK   72  A    between atoms: _170  and  _171
REMARK   73  A    between atoms: _171  and  _172
REMARK   74  A    between atoms: _181  and  _183
REMARK   75  A    between atoms: _183  and  _184
REMARK   76  A    between atoms: _183  and  _186
REMARK   77  A    between atoms: _186  and  _187
REMARK   78  A    between atoms: _190  and  _192
REMARK   79  A    between atoms: _192  and  _193
REMARK   80  A    between atoms: _192  and  _195
REMARK   81  A    between atoms: _195  and  _196
REMARK   82  A    between atoms: _199  and  _201
REMARK   83  A    between atoms: _201  and  _202
REMARK   84  A    between atoms: _201  and  _204
REMARK   85  A    between atoms: _204  and  _205
REMARK   86  A    between atoms: _205  and  _206
REMARK   87  A    between atoms: _209  and  _211
REMARK   88  A    between atoms: _211  and  _212
REMARK   89  A    between atoms: _211  and  _214
REMARK   90  A    between atoms: _217  and  _219
REMARK   91  A    between atoms: _219  and  _220
REMARK   92  A    between atoms: _219  and  _222
REMARK   93  A    between atoms: _222  and  _223
REMARK   94  A    between atoms: _223  and  _224
REMARK   95  A    between atoms: _226  and  _228
REMARK   96  A    between atoms: _228  and  _229
REMARK   97  A    between atoms: _228  and  _231
REMARK   98  A    between atoms: _231  and  _232
REMARK   99  A    between atoms: _238  and  _240
REMARK  100  A    between atoms: _240  and  _241
REMARK  101  A    between atoms: _240  and  _243
REMARK  102  A    between atoms: _243  and  _244
REMARK  103  A    between atoms: _249  and  _250
REMARK  104  A    between atoms: _252  and  _254
REMARK  105  A    between atoms: _254  and  _255
REMARK  106  A    between atoms: _258  and  _260
REMARK  107  A    between atoms: _260  and  _261
REMARK  108  A    between atoms: _260  and  _263
REMARK  109  A    between atoms: _263  and  _264
REMARK  110  A    between atoms: _264  and  _265
REMARK  111  A    between atoms: _265  and  _266
REMARK  112  A    between atoms: _275  and  _277
REMARK  113  A    between atoms: _277  and  _278
REMARK  114  A    between atoms: _277  and  _280
REMARK  115  A    between atoms: _280  and  _281
REMARK  116  A    between atoms: _284  and  _286
REMARK  117  A    between atoms: _286  and  _287
REMARK  118  A    between atoms: _286  and  _289
REMARK  119  A    between atoms: _289  and  _290
REMARK  120  A    between atoms: _290  and  _291
REMARK  121  A    between atoms: _291  and  _292
REMARK  122  A    between atoms: _301  and  _303
REMARK  123  A    between atoms: _303  and  _304
REMARK  124  A    between atoms: _303  and  _306
REMARK  125  A    between atoms: _306  and  _307
REMARK  126  A    between atoms: _312  and  _314
REMARK  127  A    between atoms: _314  and  _315
REMARK  128  A    between atoms: _314  and  _317
REMARK  129  A    between atoms: _317  and  _318
REMARK  130  A    between atoms: _321  and  _323
REMARK  131  A    between atoms: _323  and  _324
REMARK  132  A    between atoms: _323  and  _326
REMARK  133  A    between atoms: _326  and  _327
REMARK  134  A    between atoms: _330  and  _332
REMARK  135  A    between atoms: _332  and  _333
REMARK  136  A    between atoms: _332  and  _335
REMARK  137  A    between atoms: _335  and  _336
REMARK  138  A    between atoms: _338  and  _340
REMARK  139  A    between atoms: _340  and  _341
REMARK  140  A    between atoms: _340  and  _343
REMARK  141  A    between atoms: _343  and  _344
REMARK  142  A    between atoms: _347  and  _349
REMARK  143  A    between atoms: _349  and  _350
REMARK  144  A    between atoms: _349  and  _352
REMARK  145  A    between atoms: _352  and  _353
REMARK  146  A    between atoms: _353  and  _354
REMARK  147  A    between atoms: _359  and  _361
REMARK  148  A    between atoms: _361  and  _362
REMARK  149  A    between atoms: _365  and  _367
REMARK  150  A    between atoms: _367  and  _368
REMARK  151  A    between atoms: _367  and  _370
REMARK  152  A    between atoms: _370  and  _371
REMARK  153  A    between atoms: _376  and  _377
REMARK  154  A    between atoms: _379  and  _381
REMARK  155  A    between atoms: _381  and  _382
REMARK  156  A    between atoms: _381  and  _384
REMARK  157  A    between atoms: _384  and  _385
REMARK  158  A    between atoms: _385  and  _386
REMARK  159  A    between atoms: _391  and  _393
REMARK  160  A    between atoms: _393  and  _394
REMARK  161  A    between atoms: _396  and  _398
REMARK  162  A    between atoms: _398  and  _399
REMARK  163  A    between atoms: _401  and  _403
REMARK  164  A    between atoms: _403  and  _404
REMARK  165  A    between atoms: _403  and  _406
REMARK  166  A    between atoms: _406  and  _407
REMARK  167  A    between atoms: _407  and  _408
REMARK  168  A    between atoms: _408  and  _409
REMARK  169  A    between atoms: _418  and  _420
REMARK  170  A    between atoms: _420  and  _421
REMARK  171  A    between atoms: _420  and  _423
REMARK  172  A    between atoms: _423  and  _424
REMARK  173  A    between atoms: _427  and  _429
REMARK  174  A    between atoms: _429  and  _430
REMARK  175  A    between atoms: _429  and  _432
REMARK  176  A    between atoms: _435  and  _437
REMARK  177  A    between atoms: _437  and  _438
REMARK  178  A    between atoms: _437  and  _440
REMARK  179  A    between atoms: _443  and  _445
REMARK  180  A    between atoms: _445  and  _446
REMARK  181  A    between atoms: _448  and  _450
REMARK  182  A    between atoms: _450  and  _451
REMARK  183  A    between atoms: _450  and  _453
REMARK  184  A    between atoms: _453  and  _454
REMARK  185  A    between atoms: _454  and  _455
REMARK  186  A    between atoms: _455  and  _456
REMARK  187  A    between atoms: _456  and  _457
REMARK  188  A    between atoms: _461  and  _463
REMARK  189  A    between atoms: _463  and  _464
REMARK  190  A    between atoms: _463  and  _466
REMARK  191  A    between atoms: _466  and  _467
REMARK  192  A    between atoms: _467  and  _468
REMARK  193  A    between atoms: _468  and  _469
REMARK  194  A    between atoms: _478  and  _480
REMARK  195  A    between atoms: _480  and  _481
REMARK  196  A    between atoms: _484  and  _486
REMARK  197  A    between atoms: _486  and  _487
REMARK  198  A    between atoms: _486  and  _489
REMARK  199  A    between atoms: _489  and  _490
REMARK  200  A    between atoms: _490  and  _491
REMARK  201  A    between atoms: _491  and  _492
REMARK  202  A    between atoms: _501  and  _503
REMARK  203  A    between atoms: _503  and  _504
REMARK  204  A    between atoms: _507  and  _509
REMARK  205  A    between atoms: _509  and  _510
REMARK  206  A    between atoms: _509  and  _512
REMARK  207  A    between atoms: _512  and  _513
REMARK  208  A    between atoms: _513  and  _514
REMARK  209  A    between atoms: _514  and  _515
REMARK  210  A    between atoms: _524  and  _526
REMARK  211  A    between atoms: _526  and  _527
REMARK  212  A    between atoms: _529  and  _531
REMARK  213  A    between atoms: _531  and  _532
REMARK  214  A    between atoms: _531  and  _534
REMARK  215  A    between atoms: _534  and  _535
REMARK  216  A    between atoms: _535  and  _536
REMARK  217  A    between atoms: _539  and  _541
REMARK  218  A    between atoms: _541  and  _542
REMARK  219  A    between atoms: _541  and  _544
REMARK  220  A    between atoms: _544  and  _545
REMARK  221  A    between atoms: _548  and  _550
REMARK  222  A    between atoms: _550  and  _551
REMARK  223  A    between atoms: _550  and  _553
REMARK  224  A    between atoms: _553  and  _554
REMARK  225  A    between atoms: _557  and  _559
REMARK  226  A    between atoms: _559  and  _560
REMARK  227  A    between atoms: _559  and  _562
REMARK  228  A    between atoms: _562  and  _563
REMARK  229  A    between atoms: _563  and  _564
REMARK  230  A    between atoms: _564  and  _565
REMARK  231  A    between atoms: _574  and  _576
REMARK  232  A    between atoms: _576  and  _577
REMARK  233  A    between atoms: _576  and  _579
REMARK  234  A    between atoms: _579  and  _580
REMARK  235  A    between atoms: _583  and  _585
REMARK  236  A    between atoms: _585  and  _586
REMARK  237  A    between atoms: _585  and  _588
REMARK  238  A    between atoms: _588  and  _589
REMARK  239  A    between atoms: _589  and  _590
REMARK  240  A    between atoms: _593  and  _595
REMARK  241  A    between atoms: _595  and  _596
REMARK  242  A    between atoms: _595  and  _598
REMARK  243  A    between atoms: _598  and  _599
REMARK  244  A    between atoms: _599  and  _600
REMARK  245  A    between atoms: _605  and  _607
REMARK  246  A    between atoms: _607  and  _608
REMARK  247  A    between atoms: _607  and  _610
REMARK  248  A    between atoms: _610  and  _611
REMARK  249  A    between atoms: _611  and  _612
REMARK  250  A    between atoms: _615  and  _617
REMARK  251  A    between atoms: _617  and  _618
REMARK  252  A    between atoms: _617  and  _620
REMARK  253  A    between atoms: _620  and  _621
REMARK  254  A    between atoms: _627  and  _629
REMARK  255  A    between atoms: _629  and  _630
REMARK  256  A    between atoms: _629  and  _632
REMARK  257  A    between atoms: _632  and  _633
REMARK  258  A    between atoms: _639  and  _641
REMARK  259  A    between atoms: _641  and  _642
REMARK  260  A    between atoms: _641  and  _644
REMARK  261  A    between atoms: _644  and  _645
REMARK  262  A    between atoms: _648  and  _650
REMARK  263  A    between atoms: _650  and  _651
REMARK  264  A    between atoms: _650  and  _653
REMARK  265  A    between atoms: _653  and  _654
REMARK  266  A    between atoms: _659  and  _660
REMARK  267  A    between atoms: _662  and  _664
REMARK  268  A    between atoms: _664  and  _665
REMARK  269  A    between atoms: _668  and  _670
REMARK  270  A    between atoms: _670  and  _671
REMARK  271  A    between atoms: _670  and  _673
REMARK  272  A    between atoms: _673  and  _674
REMARK  273  A    between atoms: _674  and  _675
REMARK  274  A    between atoms: _681  and  _682
REMARK  275  A    between atoms: _687  and  _689
REMARK  276  A    between atoms: _689  and  _690
REMARK  277  A    between atoms: _689  and  _692
REMARK  278  A    between atoms: _692  and  _693
REMARK  279  A    between atoms: _696  and  _698
REMARK  280  A    between atoms: _698  and  _699
REMARK  281  A    between atoms: _698  and  _701
REMARK  282  A    between atoms: _701  and  _702
REMARK  283  A    between atoms: _702  and  _703
REMARK  284  A    between atoms: _706  and  _708
REMARK  285  A    between atoms: _708  and  _709
REMARK  286  A    between atoms: _708  and  _711
REMARK                            x       y       z     vdW  Elec       q    Type
REMARK                         _______ _______ _______ _____ _____    ______ ____
ROOT
ATOM      1  O   HOH     1      22.819 108.080  23.923  0.00  0.00    +0.000 OA
ENDROOT
TORSDOF 0
REMARK  Name = ../refined-set-2016/4tmk/4tmk_pocket.pdb
REMARK  286 active torsions:
REMARK  status: ('A' for Active; 'I' for Inactive)
REMARK    1  A    between atoms: _1  and  _3
REMARK    2  A    between atoms: _3  and  _4
REMARK    3  A    between atoms: _3  and  _6
REMARK    4  A    between atoms: _6  and  _7
REMARK    5  A    between atoms: _10  and  _12
REMARK    6  A    between atoms: _12  and  _13
REMARK    7  A    between atoms: _12  and  _15
REMARK    8  A    between atoms: _15  and  _16
REMARK    9  A    between atoms: _16  and  _17
REMARK   10  A    between atoms: _20  and  _22
REMARK   11  A    between atoms: _22  and  _23
REMARK   12  A    between atoms: _25  and  _27
REMARK   13  A    between atoms: _27  and  _28
REMARK   14  A    between atoms: _27  and  _30
REMARK   15  A    between atoms: _30  and  _31
REMARK   16  A    between atoms: _34  and  _36
REMARK   17  A    between atoms: _36  and  _37
REMARK   18  A    between atoms: _36  and  _39
REMARK   19  A    between atoms: _39  and  _40
REMARK   20  A    between atoms: _40  and  _41
REMARK   21  A    between atoms: _44  and  _46
REMARK   22  A    between atoms: _46  and  _47
REMARK   23  A    between atoms: _49  and  _51
REMARK   24  A    between atoms: _51  and  _52
REMARK   25  A    between atoms: _55  and  _57
REMARK   26  A    between atoms: _57  and  _58
REMARK   27  A    between atoms: _60  and  _62
REMARK   28  A    between atoms: _62  and  _63
REMARK   29  A    between atoms: _62  and  _65
REMARK   30  A    between atoms: _65  and  _66
REMARK   31  A    between atoms: _66  and  _67
REMARK   32  A    between atoms: _67  and  _68
REMARK   33  A    between atoms: _68  and  _69
REMARK   34  A    between atoms: _73  and  _75
REMARK   35  A    between atoms: _75  and  _76
REMARK   36  A    between atoms: _75  and  _78
REMARK   37  A    between atoms: _78  and  _79
REMARK   38  A    between atoms: _82  and  _84
REMARK   39  A    between atoms: _84  and  _85
REMARK   40  A    between atoms: _84  and  _87
REMARK   41  A    between atoms: _87  and  _88
REMARK   42  A    between atoms: _91  and  _93
REMARK   43  A    between atoms: _93  and  _94
REMARK   44  A    between atoms: _97  and  _99
REMARK   45  A    between atoms: _99  and  _100
REMARK   46  A    between atoms: _99  and  _102
REMARK   47  A    between atoms: _102  and  _103
REMARK   48  A    between atoms: _103  and  _104
REMARK   49  A    between atoms: _104  and  _105
REMARK   50  A    between atoms: _114  and  _116
REMARK   51  A    between atoms: _116  and  _117
REMARK   52  A    between atoms: _116  and  _119
REMARK   53  A    between atoms: _119  and  _120
REMARK   54  A    between atoms: _125  and  _127
REMARK   55  A    between atoms: _127  and  _128
REMARK   56  A    between atoms: _127  and  _130
REMARK   57  A    between atoms: _130  and  _131
REMARK   58  A    between atoms: _131  and  _132
REMARK   59  A    between atoms: _132  and  _133
REMARK   60  A    between atoms: _142  and  _144
REMARK   61  A    between atoms: _144  and  _145
REMARK   62  A    between atoms: _144  and  _147
REMARK   63  A    between atoms: _147  and  _148
REMARK   64  A    between atoms: _148  and  _149
REMARK   65  A    between atoms: _153  and  _154
REMARK   66  A    between atoms: _159  and  _161
REMARK   67  A    between atoms: _161  and  _162
REMARK   68  A    between atoms: _164  and  _166
REMARK   69  A    between atoms: _166  and  _167
REMARK   70  A    between atoms: _166  and  _169
REMARK   71  A    between atoms: _169  and  _170
REMARK   72  A    between atoms: _170  and  _171
REMARK   73  A    between atoms: _171  and  _172
REMARK   74  A    between atoms: _181  and  _183
REMARK   75  A    between atoms: _183  and  _184
REMARK   76  A    between atoms: _183  and  _186
REMARK   77  A    between atoms: _186  and  _187
REMARK   78  A    between atoms: _190  and  _192
REMARK   79  A    between atoms: _192  and  _193
REMARK   80  A    between atoms: _192  and  _195
REMARK   81  A    between atoms: _195  and  _196
REMARK   82  A    between atoms: _199  and  _201
REMARK   83  A    between atoms: _201  and  _202
REMARK   84  A    between atoms: _201  and  _204
REMARK   85  A    between atoms: _204  and  _205
REMARK   86  A    between atoms: _205  and  _206
REMARK   87  A    between atoms: _209  and  _211
REMARK   88  A    between atoms: _211  and  _212
REMARK   89  A    between atoms: _211  and  _214
REMARK   90  A    between atoms: _217  and  _219
REMARK   91  A    between atoms: _219  and  _220
REMARK   92  A    between atoms: _219  and  _222
REMARK   93  A    between atoms: _222  and  _223
REMARK   94  A    between atoms: _223  and  _224
REMARK   95  A    between atoms: _226  and  _228
REMARK   96  A    between atoms: _228  and  _229
REMARK   97  A    between atoms: _228  and  _231
REMARK   98  A    between atoms: _231  and  _232
REMARK   99  A    between atoms: _238  and  _240
REMARK  100  A    between atoms: _240  and  _241
REMARK  101  A    between atoms: _240  and  _243
REMARK  102  A    between atoms: _243  and  _244
REMARK  103  A    between atoms: _249  and  _250
REMARK  104  A    between atoms: _252  and  _254
REMARK  105  A    between atoms: _254  and  _255
REMARK  106  A    between atoms: _258  and  _260
REMARK  107  A    between atoms: _260  and  _261
REMARK  108  A    between atoms: _260  and  _263
REMARK  109  A    between atoms: _263  and  _264
REMARK  110  A    between atoms: _264  and  _265
REMARK  111  A    between atoms: _265  and  _266
REMARK  112  A    between atoms: _275  and  _277
REMARK  113  A    between atoms: _277  and  _278
REMARK  114  A    between atoms: _277  and  _280
REMARK  115  A    between atoms: _280  and  _281
REMARK  116  A    between atoms: _284  and  _286
REMARK  117  A    between atoms: _286  and  _287
REMARK  118  A    between atoms: _286  and  _289
REMARK  119  A    between atoms: _289  and  _290
REMARK  120  A    between atoms: _290  and  _291
REMARK  121  A    between atoms: _291  and  _292
REMARK  122  A    between atoms: _301  and  _303
REMARK  123  A    between atoms: _303  and  _304
REMARK  124  A    between atoms: _303  and  _306
REMARK  125  A    between atoms: _306  and  _307
REMARK  126  A    between atoms: _312  and  _314
REMARK  127  A    between atoms: _314  and  _315
REMARK  128  A    between atoms: _314  and  _317
REMARK  129  A    between atoms: _317  and  _318
REMARK  130  A    between atoms: _321  and  _323
REMARK  131  A    between atoms: _323  and  _324
REMARK  132  A    between atoms: _323  and  _326
REMARK  133  A    between atoms: _326  and  _327
REMARK  134  A    between atoms: _330  and  _332
REMARK  135  A    between atoms: _332  and  _333
REMARK  136  A    between atoms: _332  and  _335
REMARK  137  A    between atoms: _335  and  _336
REMARK  138  A    between atoms: _338  and  _340
REMARK  139  A    between atoms: _340  and  _341
REMARK  140  A    between atoms: _340  and  _343
REMARK  141  A    between atoms: _343  and  _344
REMARK  142  A    between atoms: _347  and  _349
REMARK  143  A    between atoms: _349  and  _350
REMARK  144  A    between atoms: _349  and  _352
REMARK  145  A    between atoms: _352  and  _353
REMARK  146  A    between atoms: _353  and  _354
REMARK  147  A    between atoms: _359  and  _361
REMARK  148  A    between atoms: _361  and  _362
REMARK  149  A    between atoms: _365  and  _367
REMARK  150  A    between atoms: _367  and  _368
REMARK  151  A    between atoms: _367  and  _370
REMARK  152  A    between atoms: _370  and  _371
REMARK  153  A    between atoms: _376  and  _377
REMARK  154  A    between atoms: _379  and  _381
REMARK  155  A    between atoms: _381  and  _382
REMARK  156  A    between atoms: _381  and  _384
REMARK  157  A    between atoms: _384  and  _385
REMARK  158  A    between atoms: _385  and  _386
REMARK  159  A    between atoms: _391  and  _393
REMARK  160  A    between atoms: _393  and  _394
REMARK  161  A    between atoms: _396  and  _398
REMARK  162  A    between atoms: _398  and  _399
REMARK  163  A    between atoms: _401  and  _403
REMARK  164  A    between atoms: _403  and  _404
REMARK  165  A    between atoms: _403  and  _406
REMARK  166  A    between atoms: _406  and  _407
REMARK  167  A    between atoms: _407  and  _408
REMARK  168  A    between atoms: _408  and  _409
REMARK  169  A    between atoms: _418  and  _420
REMARK  170  A    between atoms: _420  and  _421
REMARK  171  A    between atoms: _420  and  _423
REMARK  172  A    between atoms: _423  and  _424
REMARK  173  A    between atoms: _427  and  _429
REMARK  174  A    between atoms: _429  and  _430
REMARK  175  A    between atoms: _429  and  _432
REMARK  176  A    between atoms: _435  and  _437
REMARK  177  A    between atoms: _437  and  _438
REMARK  178  A    between atoms: _437  and  _440
REMARK  179  A    between atoms: _443  and  _445
REMARK  180  A    between atoms: _445  and  _446
REMARK  181  A    between atoms: _448  and  _450
REMARK  182  A    between atoms: _450  and  _451
REMARK  183  A    between atoms: _450  and  _453
REMARK  184  A    between atoms: _453  and  _454
REMARK  185  A    between atoms: _454  and  _455
REMARK  186  A    between atoms: _455  and  _456
REMARK  187  A    between atoms: _456  and  _457
REMARK  188  A    between atoms: _461  and  _463
REMARK  189  A    between atoms: _463  and  _464
REMARK  190  A    between atoms: _463  and  _466
REMARK  191  A    between atoms: _466  and  _467
REMARK  192  A    between atoms: _467  and  _468
REMARK  193  A    between atoms: _468  and  _469
REMARK  194  A    between atoms: _478  and  _480
REMARK  195  A    between atoms: _480  and  _481
REMARK  196  A    between atoms: _484  and  _486
REMARK  197  A    between atoms: _486  and  _487
REMARK  198  A    between atoms: _486  and  _489
REMARK  199  A    between atoms: _489  and  _490
REMARK  200  A    between atoms: _490  and  _491
REMARK  201  A    between atoms: _491  and  _492
REMARK  202  A    between atoms: _501  and  _503
REMARK  203  A    between atoms: _503  and  _504
REMARK  204  A    between atoms: _507  and  _509
REMARK  205  A    between atoms: _509  and  _510
REMARK  206  A    between atoms: _509  and  _512
REMARK  207  A    between atoms: _512  and  _513
REMARK  208  A    between atoms: _513  and  _514
REMARK  209  A    between atoms: _514  and  _515
REMARK  210  A    between atoms: _524  and  _526
REMARK  211  A    between atoms: _526  and  _527
REMARK  212  A    between atoms: _529  and  _531
REMARK  213  A    between atoms: _531  and  _532
REMARK  214  A    between atoms: _531  and  _534
REMARK  215  A    between atoms: _534  and  _535
REMARK  216  A    between atoms: _535  and  _536
REMARK  217  A    between atoms: _539  and  _541
REMARK  218  A    between atoms: _541  and  _542
REMARK  219  A    between atoms: _541  and  _544
REMARK  220  A    between atoms: _544  and  _545
REMARK  221  A    between atoms: _548  and  _550
REMARK  222  A    between atoms: _550  and  _551
REMARK  223  A    between atoms: _550  and  _553
REMARK  224  A    between atoms: _553  and  _554
REMARK  225  A    between atoms: _557  and  _559
REMARK  226  A    between atoms: _559  and  _560
REMARK  227  A    between atoms: _559  and  _562
REMARK  228  A    between atoms: _562  and  _563
REMARK  229  A    between atoms: _563  and  _564
REMARK  230  A    between atoms: _564  and  _565
REMARK  231  A    between atoms: _574  and  _576
REMARK  232  A    between atoms: _576  and  _577
REMARK  233  A    between atoms: _576  and  _579
REMARK  234  A    between atoms: _579  and  _580
REMARK  235  A    between atoms: _583  and  _585
REMARK  236  A    between atoms: _585  and  _586
REMARK  237  A    between atoms: _585  and  _588
REMARK  238  A    between atoms: _588  and  _589
REMARK  239  A    between atoms: _589  and  _590
REMARK  240  A    between atoms: _593  and  _595
REMARK  241  A    between atoms: _595  and  _596
REMARK  242  A    between atoms: _595  and  _598
REMARK  243  A    between atoms: _598  and  _599
REMARK  244  A    between atoms: _599  and  _600
REMARK  245  A    between atoms: _605  and  _607
REMARK  246  A    between atoms: _607  and  _608
REMARK  247  A    between atoms: _607  and  _610
REMARK  248  A    between atoms: _610  and  _611
REMARK  249  A    between atoms: _611  and  _612
REMARK  250  A    between atoms: _615  and  _617
REMARK  251  A    between atoms: _617  and  _618
REMARK  252  A    between atoms: _617  and  _620
REMARK  253  A    between atoms: _620  and  _621
REMARK  254  A    between atoms: _627  and  _629
REMARK  255  A    between atoms: _629  and  _630
REMARK  256  A    between atoms: _629  and  _632
REMARK  257  A    between atoms: _632  and  _633
REMARK  258  A    between atoms: _639  and  _641
REMARK  259  A    between atoms: _641  and  _642
REMARK  260  A    between atoms: _641  and  _644
REMARK  261  A    between atoms: _644  and  _645
REMARK  262  A    between atoms: _648  and  _650
REMARK  263  A    between atoms: _650  and  _651
REMARK  264  A    between atoms: _650  and  _653
REMARK  265  A    between atoms: _653  and  _654
REMARK  266  A    between atoms: _659  and  _660
REMARK  267  A    between atoms: _662  and  _664
REMARK  268  A    between atoms: _664  and  _665
REMARK  269  A    between atoms: _668  and  _670
REMARK  270  A    between atoms: _670  and  _671
REMARK  271  A    between atoms: _670  and  _673
REMARK  272  A    between atoms: _673  and  _674
REMARK  273  A    between atoms: _674  and  _675
REMARK  274  A    between atoms: _681  and  _682
REMARK  275  A    between atoms: _687  and  _689
REMARK  276  A    between atoms: _689  and  _690
REMARK  277  A    between atoms: _689  and  _692
REMARK  278  A    between atoms: _692  and  _693
REMARK  279  A    between atoms: _696  and  _698
REMARK  280  A    between atoms: _698  and  _699
REMARK  281  A    between atoms: _698  and  _701
REMARK  282  A    between atoms: _701  and  _702
REMARK  283  A    between atoms: _702  and  _703
REMARK  284  A    between atoms: _706  and  _708
REMARK  285  A    between atoms: _708  and  _709
REMARK  286  A    between atoms: _708  and  _711
REMARK                            x       y       z     vdW  Elec       q    Type
REMARK                         _______ _______ _______ _____ _____    ______ ____
ROOT
ATOM      1  O   HOH     1      23.709 105.827  22.569  0.00  0.00    +0.000 OA
ENDROOT
TORSDOF 0
REMARK  Name = ../refined-set-2016/4tmk/4tmk_pocket.pdb
REMARK  286 active torsions:
REMARK  status: ('A' for Active; 'I' for Inactive)
REMARK    1  A    between atoms: _1  and  _3
REMARK    2  A    between atoms: _3  and  _4
REMARK    3  A    between atoms: _3  and  _6
REMARK    4  A    between atoms: _6  and  _7
REMARK    5  A    between atoms: _10  and  _12
REMARK    6  A    between atoms: _12  and  _13
REMARK    7  A    between atoms: _12  and  _15
REMARK    8  A    between atoms: _15  and  _16
REMARK    9  A    between atoms: _16  and  _17
REMARK   10  A    between atoms: _20  and  _22
REMARK   11  A    between atoms: _22  and  _23
REMARK   12  A    between atoms: _25  and  _27
REMARK   13  A    between atoms: _27  and  _28
REMARK   14  A    between atoms: _27  and  _30
REMARK   15  A    between atoms: _30  and  _31
REMARK   16  A    between atoms: _34  and  _36
REMARK   17  A    between atoms: _36  and  _37
REMARK   18  A    between atoms: _36  and  _39
REMARK   19  A    between atoms: _39  and  _40
REMARK   20  A    between atoms: _40  and  _41
REMARK   21  A    between atoms: _44  and  _46
REMARK   22  A    between atoms: _46  and  _47
REMARK   23  A    between atoms: _49  and  _51
REMARK   24  A    between atoms: _51  and  _52
REMARK   25  A    between atoms: _55  and  _57
REMARK   26  A    between atoms: _57  and  _58
REMARK   27  A    between atoms: _60  and  _62
REMARK   28  A    between atoms: _62  and  _63
REMARK   29  A    between atoms: _62  and  _65
REMARK   30  A    between atoms: _65  and  _66
REMARK   31  A    between atoms: _66  and  _67
REMARK   32  A    between atoms: _67  and  _68
REMARK   33  A    between atoms: _68  and  _69
REMARK   34  A    between atoms: _73  and  _75
REMARK   35  A    between atoms: _75  and  _76
REMARK   36  A    between atoms: _75  and  _78
REMARK   37  A    between atoms: _78  and  _79
REMARK   38  A    between atoms: _82  and  _84
REMARK   39  A    between atoms: _84  and  _85
REMARK   40  A    between atoms: _84  and  _87
REMARK   41  A    between atoms: _87  and  _88
REMARK   42  A    between atoms: _91  and  _93
REMARK   43  A    between atoms: _93  and  _94
REMARK   44  A    between atoms: _97  and  _99
REMARK   45  A    between atoms: _99  and  _100
REMARK   46  A    between atoms: _99  and  _102
REMARK   47  A    between atoms: _102  and  _103
REMARK   48  A    between atoms: _103  and  _104
REMARK   49  A    between atoms: _104  and  _105
REMARK   50  A    between atoms: _114  and  _116
REMARK   51  A    between atoms: _116  and  _117
REMARK   52  A    between atoms: _116  and  _119
REMARK   53  A    between atoms: _119  and  _120
REMARK   54  A    between atoms: _125  and  _127
REMARK   55  A    between atoms: _127  and  _128
REMARK   56  A    between atoms: _127  and  _130
REMARK   57  A    between atoms: _130  and  _131
REMARK   58  A    between atoms: _131  and  _132
REMARK   59  A    between atoms: _132  and  _133
REMARK   60  A    between atoms: _142  and  _144
REMARK   61  A    between atoms: _144  and  _145
REMARK   62  A    between atoms: _144  and  _147
REMARK   63  A    between atoms: _147  and  _148
REMARK   64  A    between atoms: _148  and  _149
REMARK   65  A    between atoms: _153  and  _154
REMARK   66  A    between atoms: _159  and  _161
REMARK   67  A    between atoms: _161  and  _162
REMARK   68  A    between atoms: _164  and  _166
REMARK   69  A    between atoms: _166  and  _167
REMARK   70  A    between atoms: _166  and  _169
REMARK   71  A    between atoms: _169  and  _170
REMARK   72  A    between atoms: _170  and  _171
REMARK   73  A    between atoms: _171  and  _172
REMARK   74  A    between atoms: _181  and  _183
REMARK   75  A    between atoms: _183  and  _184
REMARK   76  A    between atoms: _183  and  _186
REMARK   77  A    between atoms: _186  and  _187
REMARK   78  A    between atoms: _190  and  _192
REMARK   79  A    between atoms: _192  and  _193
REMARK   80  A    between atoms: _192  and  _195
REMARK   81  A    between atoms: _195  and  _196
REMARK   82  A    between atoms: _199  and  _201
REMARK   83  A    between atoms: _201  and  _202
REMARK   84  A    between atoms: _201  and  _204
REMARK   85  A    between atoms: _204  and  _205
REMARK   86  A    between atoms: _205  and  _206
REMARK   87  A    between atoms: _209  and  _211
REMARK   88  A    between atoms: _211  and  _212
REMARK   89  A    between atoms: _211  and  _214
REMARK   90  A    between atoms: _217  and  _219
REMARK   91  A    between atoms: _219  and  _220
REMARK   92  A    between atoms: _219  and  _222
REMARK   93  A    between atoms: _222  and  _223
REMARK   94  A    between atoms: _223  and  _224
REMARK   95  A    between atoms: _226  and  _228
REMARK   96  A    between atoms: _228  and  _229
REMARK   97  A    between atoms: _228  and  _231
REMARK   98  A    between atoms: _231  and  _232
REMARK   99  A    between atoms: _238  and  _240
REMARK  100  A    between atoms: _240  and  _241
REMARK  101  A    between atoms: _240  and  _243
REMARK  102  A    between atoms: _243  and  _244
REMARK  103  A    between atoms: _249  and  _250
REMARK  104  A    between atoms: _252  and  _254
REMARK  105  A    between atoms: _254  and  _255
REMARK  106  A    between atoms: _258  and  _260
REMARK  107  A    between atoms: _260  and  _261
REMARK  108  A    between atoms: _260  and  _263
REMARK  109  A    between atoms: _263  and  _264
REMARK  110  A    between atoms: _264  and  _265
REMARK  111  A    between atoms: _265  and  _266
REMARK  112  A    between atoms: _275  and  _277
REMARK  113  A    between atoms: _277  and  _278
REMARK  114  A    between atoms: _277  and  _280
REMARK  115  A    between atoms: _280  and  _281
REMARK  116  A    between atoms: _284  and  _286
REMARK  117  A    between atoms: _286  and  _287
REMARK  118  A    between atoms: _286  and  _289
REMARK  119  A    between atoms: _289  and  _290
REMARK  120  A    between atoms: _290  and  _291
REMARK  121  A    between atoms: _291  and  _292
REMARK  122  A    between atoms: _301  and  _303
REMARK  123  A    between atoms: _303  and  _304
REMARK  124  A    between atoms: _303  and  _306
REMARK  125  A    between atoms: _306  and  _307
REMARK  126  A    between atoms: _312  and  _314
REMARK  127  A    between atoms: _314  and  _315
REMARK  128  A    between atoms: _314  and  _317
REMARK  129  A    between atoms: _317  and  _318
REMARK  130  A    between atoms: _321  and  _323
REMARK  131  A    between atoms: _323  and  _324
REMARK  132  A    between atoms: _323  and  _326
REMARK  133  A    between atoms: _326  and  _327
REMARK  134  A    between atoms: _330  and  _332
REMARK  135  A    between atoms: _332  and  _333
REMARK  136  A    between atoms: _332  and  _335
REMARK  137  A    between atoms: _335  and  _336
REMARK  138  A    between atoms: _338  and  _340
REMARK  139  A    between atoms: _340  and  _341
REMARK  140  A    between atoms: _340  and  _343
REMARK  141  A    between atoms: _343  and  _344
REMARK  142  A    between atoms: _347  and  _349
REMARK  143  A    between atoms: _349  and  _350
REMARK  144  A    between atoms: _349  and  _352
REMARK  145  A    between atoms: _352  and  _353
REMARK  146  A    between atoms: _353  and  _354
REMARK  147  A    between atoms: _359  and  _361
REMARK  148  A    between atoms: _361  and  _362
REMARK  149  A    between atoms: _365  and  _367
REMARK  150  A    between atoms: _367  and  _368
REMARK  151  A    between atoms: _367  and  _370
REMARK  152  A    between atoms: _370  and  _371
REMARK  153  A    between atoms: _376  and  _377
REMARK  154  A    between atoms: _379  and  _381
REMARK  155  A    between atoms: _381  and  _382
REMARK  156  A    between atoms: _381  and  _384
REMARK  157  A    between atoms: _384  and  _385
REMARK  158  A    between atoms: _385  and  _386
REMARK  159  A    between atoms: _391  and  _393
REMARK  160  A    between atoms: _393  and  _394
REMARK  161  A    between atoms: _396  and  _398
REMARK  162  A    between atoms: _398  and  _399
REMARK  163  A    between atoms: _401  and  _403
REMARK  164  A    between atoms: _403  and  _404
REMARK  165  A    between atoms: _403  and  _406
REMARK  166  A    between atoms: _406  and  _407
REMARK  167  A    between atoms: _407  and  _408
REMARK  168  A    between atoms: _408  and  _409
REMARK  169  A    between atoms: _418  and  _420
REMARK  170  A    between atoms: _420  and  _421
REMARK  171  A    between atoms: _420  and  _423
REMARK  172  A    between atoms: _423  and  _424
REMARK  173  A    between atoms: _427  and  _429
REMARK  174  A    between atoms: _429  and  _430
REMARK  175  A    between atoms: _429  and  _432
REMARK  176  A    between atoms: _435  and  _437
REMARK  177  A    between atoms: _437  and  _438
REMARK  178  A    between atoms: _437  and  _440
REMARK  179  A    between atoms: _443  and  _445
REMARK  180  A    between atoms: _445  and  _446
REMARK  181  A    between atoms: _448  and  _450
REMARK  182  A    between atoms: _450  and  _451
REMARK  183  A    between atoms: _450  and  _453
REMARK  184  A    between atoms: _453  and  _454
REMARK  185  A    between atoms: _454  and  _455
REMARK  186  A    between atoms: _455  and  _456
REMARK  187  A    between atoms: _456  and  _457
REMARK  188  A    between atoms: _461  and  _463
REMARK  189  A    between atoms: _463  and  _464
REMARK  190  A    between atoms: _463  and  _466
REMARK  191  A    between atoms: _466  and  _467
REMARK  192  A    between atoms: _467  and  _468
REMARK  193  A    between atoms: _468  and  _469
REMARK  194  A    between atoms: _478  and  _480
REMARK  195  A    between atoms: _480  and  _481
REMARK  196  A    between atoms: _484  and  _486
REMARK  197  A    between atoms: _486  and  _487
REMARK  198  A    between atoms: _486  and  _489
REMARK  199  A    between atoms: _489  and  _490
REMARK  200  A    between atoms: _490  and  _491
REMARK  201  A    between atoms: _491  and  _492
REMARK  202  A    between atoms: _501  and  _503
REMARK  203  A    between atoms: _503  and  _504
REMARK  204  A    between atoms: _507  and  _509
REMARK  205  A    between atoms: _509  and  _510
REMARK  206  A    between atoms: _509  and  _512
REMARK  207  A    between atoms: _512  and  _513
REMARK  208  A    between atoms: _513  and  _514
REMARK  209  A    between atoms: _514  and  _515
REMARK  210  A    between atoms: _524  and  _526
REMARK  211  A    between atoms: _526  and  _527
REMARK  212  A    between atoms: _529  and  _531
REMARK  213  A    between atoms: _531  and  _532
REMARK  214  A    between atoms: _531  and  _534
REMARK  215  A    between atoms: _534  and  _535
REMARK  216  A    between atoms: _535  and  _536
REMARK  217  A    between atoms: _539  and  _541
REMARK  218  A    between atoms: _541  and  _542
REMARK  219  A    between atoms: _541  and  _544
REMARK  220  A    between atoms: _544  and  _545
REMARK  221  A    between atoms: _548  and  _550
REMARK  222  A    between atoms: _550  and  _551
REMARK  223  A    between atoms: _550  and  _553
REMARK  224  A    between atoms: _553  and  _554
REMARK  225  A    between atoms: _557  and  _559
REMARK  226  A    between atoms: _559  and  _560
REMARK  227  A    between atoms: _559  and  _562
REMARK  228  A    between atoms: _562  and  _563
REMARK  229  A    between atoms: _563  and  _564
REMARK  230  A    between atoms: _564  and  _565
REMARK  231  A    between atoms: _574  and  _576
REMARK  232  A    between atoms: _576  and  _577
REMARK  233  A    between atoms: _576  and  _579
REMARK  234  A    between atoms: _579  and  _580
REMARK  235  A    between atoms: _583  and  _585
REMARK  236  A    between atoms: _585  and  _586
REMARK  237  A    between atoms: _585  and  _588
REMARK  238  A    between atoms: _588  and  _589
REMARK  239  A    between atoms: _589  and  _590
REMARK  240  A    between atoms: _593  and  _595
REMARK  241  A    between atoms: _595  and  _596
REMARK  242  A    between atoms: _595  and  _598
REMARK  243  A    between atoms: _598  and  _599
REMARK  244  A    between atoms: _599  and  _600
REMARK  245  A    between atoms: _605  and  _607
REMARK  246  A    between atoms: _607  and  _608
REMARK  247  A    between atoms: _607  and  _610
REMARK  248  A    between atoms: _610  and  _611
REMARK  249  A    between atoms: _611  and  _612
REMARK  250  A    between atoms: _615  and  _617
REMARK  251  A    between atoms: _617  and  _618
REMARK  252  A    between atoms: _617  and  _620
REMARK  253  A    between atoms: _620  and  _621
REMARK  254  A    between atoms: _627  and  _629
REMARK  255  A    between atoms: _629  and  _630
REMARK  256  A    between atoms: _629  and  _632
REMARK  257  A    between atoms: _632  and  _633
REMARK  258  A    between atoms: _639  and  _641
REMARK  259  A    between atoms: _641  and  _642
REMARK  260  A    between atoms: _641  and  _644
REMARK  261  A    between atoms: _644  and  _645
REMARK  262  A    between atoms: _648  and  _650
REMARK  263  A    between atoms: _650  and  _651
REMARK  264  A    between atoms: _650  and  _653
REMARK  265  A    between atoms: _653  and  _654
REMARK  266  A    between atoms: _659  and  _660
REMARK  267  A    between atoms: _662  and  _664
REMARK  268  A    between atoms: _664  and  _665
REMARK  269  A    between atoms: _668  and  _670
REMARK  270  A    between atoms: _670  and  _671
REMARK  271  A    between atoms: _670  and  _673
REMARK  272  A    between atoms: _673  and  _674
REMARK  273  A    between atoms: _674  and  _675
REMARK  274  A    between atoms: _681  and  _682
REMARK  275  A    between atoms: _687  and  _689
REMARK  276  A    between atoms: _689  and  _690
REMARK  277  A    between atoms: _689  and  _692
REMARK  278  A    between atoms: _692  and  _693
REMARK  279  A    between atoms: _696  and  _698
REMARK  280  A    between atoms: _698  and  _699
REMARK  281  A    between atoms: _698  and  _701
REMARK  282  A    between atoms: _701  and  _702
REMARK  283  A    between atoms: _702  and  _703
REMARK  284  A    between atoms: _706  and  _708
REMARK  285  A    between atoms: _708  and  _709
REMARK  286  A    between atoms: _708  and  _711
REMARK                            x       y       z     vdW  Elec       q    Type
REMARK                         _______ _______ _______ _____ _____    ______ ____
ROOT
ATOM      1  O   HOH     1      24.157 117.336  19.723  0.00  0.00    +0.000 OA
ENDROOT
TORSDOF 0
REMARK  Name = ../refined-set-2016/4tmk/4tmk_pocket.pdb
REMARK  286 active torsions:
REMARK  status: ('A' for Active; 'I' for Inactive)
REMARK    1  A    between atoms: _1  and  _3
REMARK    2  A    between atoms: _3  and  _4
REMARK    3  A    between atoms: _3  and  _6
REMARK    4  A    between atoms: _6  and  _7
REMARK    5  A    between atoms: _10  and  _12
REMARK    6  A    between atoms: _12  and  _13
REMARK    7  A    between atoms: _12  and  _15
REMARK    8  A    between atoms: _15  and  _16
REMARK    9  A    between atoms: _16  and  _17
REMARK   10  A    between atoms: _20  and  _22
REMARK   11  A    between atoms: _22  and  _23
REMARK   12  A    between atoms: _25  and  _27
REMARK   13  A    between atoms: _27  and  _28
REMARK   14  A    between atoms: _27  and  _30
REMARK   15  A    between atoms: _30  and  _31
REMARK   16  A    between atoms: _34  and  _36
REMARK   17  A    between atoms: _36  and  _37
REMARK   18  A    between atoms: _36  and  _39
REMARK   19  A    between atoms: _39  and  _40
REMARK   20  A    between atoms: _40  and  _41
REMARK   21  A    between atoms: _44  and  _46
REMARK   22  A    between atoms: _46  and  _47
REMARK   23  A    between atoms: _49  and  _51
REMARK   24  A    between atoms: _51  and  _52
REMARK   25  A    between atoms: _55  and  _57
REMARK   26  A    between atoms: _57  and  _58
REMARK   27  A    between atoms: _60  and  _62
REMARK   28  A    between atoms: _62  and  _63
REMARK   29  A    between atoms: _62  and  _65
REMARK   30  A    between atoms: _65  and  _66
REMARK   31  A    between atoms: _66  and  _67
REMARK   32  A    between atoms: _67  and  _68
REMARK   33  A    between atoms: _68  and  _69
REMARK   34  A    between atoms: _73  and  _75
REMARK   35  A    between atoms: _75  and  _76
REMARK   36  A    between atoms: _75  and  _78
REMARK   37  A    between atoms: _78  and  _79
REMARK   38  A    between atoms: _82  and  _84
REMARK   39  A    between atoms: _84  and  _85
REMARK   40  A    between atoms: _84  and  _87
REMARK   41  A    between atoms: _87  and  _88
REMARK   42  A    between atoms: _91  and  _93
REMARK   43  A    between atoms: _93  and  _94
REMARK   44  A    between atoms: _97  and  _99
REMARK   45  A    between atoms: _99  and  _100
REMARK   46  A    between atoms: _99  and  _102
REMARK   47  A    between atoms: _102  and  _103
REMARK   48  A    between atoms: _103  and  _104
REMARK   49  A    between atoms: _104  and  _105
REMARK   50  A    between atoms: _114  and  _116
REMARK   51  A    between atoms: _116  and  _117
REMARK   52  A    between atoms: _116  and  _119
REMARK   53  A    between atoms: _119  and  _120
REMARK   54  A    between atoms: _125  and  _127
REMARK   55  A    between atoms: _127  and  _128
REMARK   56  A    between atoms: _127  and  _130
REMARK   57  A    between atoms: _130  and  _131
REMARK   58  A    between atoms: _131  and  _132
REMARK   59  A    between atoms: _132  and  _133
REMARK   60  A    between atoms: _142  and  _144
REMARK   61  A    between atoms: _144  and  _145
REMARK   62  A    between atoms: _144  and  _147
REMARK   63  A    between atoms: _147  and  _148
REMARK   64  A    between atoms: _148  and  _149
REMARK   65  A    between atoms: _153  and  _154
REMARK   66  A    between atoms: _159  and  _161
REMARK   67  A    between atoms: _161  and  _162
REMARK   68  A    between atoms: _164  and  _166
REMARK   69  A    between atoms: _166  and  _167
REMARK   70  A    between atoms: _166  and  _169
REMARK   71  A    between atoms: _169  and  _170
REMARK   72  A    between atoms: _170  and  _171
REMARK   73  A    between atoms: _171  and  _172
REMARK   74  A    between atoms: _181  and  _183
REMARK   75  A    between atoms: _183  and  _184
REMARK   76  A    between atoms: _183  and  _186
REMARK   77  A    between atoms: _186  and  _187
REMARK   78  A    between atoms: _190  and  _192
REMARK   79  A    between atoms: _192  and  _193
REMARK   80  A    between atoms: _192  and  _195
REMARK   81  A    between atoms: _195  and  _196
REMARK   82  A    between atoms: _199  and  _201
REMARK   83  A    between atoms: _201  and  _202
REMARK   84  A    between atoms: _201  and  _204
REMARK   85  A    between atoms: _204  and  _205
REMARK   86  A    between atoms: _205  and  _206
REMARK   87  A    between atoms: _209  and  _211
REMARK   88  A    between atoms: _211  and  _212
REMARK   89  A    between atoms: _211  and  _214
REMARK   90  A    between atoms: _217  and  _219
REMARK   91  A    between atoms: _219  and  _220
REMARK   92  A    between atoms: _219  and  _222
REMARK   93  A    between atoms: _222  and  _223
REMARK   94  A    between atoms: _223  and  _224
REMARK   95  A    between atoms: _226  and  _228
REMARK   96  A    between atoms: _228  and  _229
REMARK   97  A    between atoms: _228  and  _231
REMARK   98  A    between atoms: _231  and  _232
REMARK   99  A    between atoms: _238  and  _240
REMARK  100  A    between atoms: _240  and  _241
REMARK  101  A    between atoms: _240  and  _243
REMARK  102  A    between atoms: _243  and  _244
REMARK  103  A    between atoms: _249  and  _250
REMARK  104  A    between atoms: _252  and  _254
REMARK  105  A    between atoms: _254  and  _255
REMARK  106  A    between atoms: _258  and  _260
REMARK  107  A    between atoms: _260  and  _261
REMARK  108  A    between atoms: _260  and  _263
REMARK  109  A    between atoms: _263  and  _264
REMARK  110  A    between atoms: _264  and  _265
REMARK  111  A    between atoms: _265  and  _266
REMARK  112  A    between atoms: _275  and  _277
REMARK  113  A    between atoms: _277  and  _278
REMARK  114  A    between atoms: _277  and  _280
REMARK  115  A    between atoms: _280  and  _281
REMARK  116  A    between atoms: _284  and  _286
REMARK  117  A    between atoms: _286  and  _287
REMARK  118  A    between atoms: _286  and  _289
REMARK  119  A    between atoms: _289  and  _290
REMARK  120  A    between atoms: _290  and  _291
REMARK  121  A    between atoms: _291  and  _292
REMARK  122  A    between atoms: _301  and  _303
REMARK  123  A    between atoms: _303  and  _304
REMARK  124  A    between atoms: _303  and  _306
REMARK  125  A    between atoms: _306  and  _307
REMARK  126  A    between atoms: _312  and  _314
REMARK  127  A    between atoms: _314  and  _315
REMARK  128  A    between atoms: _314  and  _317
REMARK  129  A    between atoms: _317  and  _318
REMARK  130  A    between atoms: _321  and  _323
REMARK  131  A    between atoms: _323  and  _324
REMARK  132  A    between atoms: _323  and  _326
REMARK  133  A    between atoms: _326  and  _327
REMARK  134  A    between atoms: _330  and  _332
REMARK  135  A    between atoms: _332  and  _333
REMARK  136  A    between atoms: _332  and  _335
REMARK  137  A    between atoms: _335  and  _336
REMARK  138  A    between atoms: _338  and  _340
REMARK  139  A    between atoms: _340  and  _341
REMARK  140  A    between atoms: _340  and  _343
REMARK  141  A    between atoms: _343  and  _344
REMARK  142  A    between atoms: _347  and  _349
REMARK  143  A    between atoms: _349  and  _350
REMARK  144  A    between atoms: _349  and  _352
REMARK  145  A    between atoms: _352  and  _353
REMARK  146  A    between atoms: _353  and  _354
REMARK  147  A    between atoms: _359  and  _361
REMARK  148  A    between atoms: _361  and  _362
REMARK  149  A    between atoms: _365  and  _367
REMARK  150  A    between atoms: _367  and  _368
REMARK  151  A    between atoms: _367  and  _370
REMARK  152  A    between atoms: _370  and  _371
REMARK  153  A    between atoms: _376  and  _377
REMARK  154  A    between atoms: _379  and  _381
REMARK  155  A    between atoms: _381  and  _382
REMARK  156  A    between atoms: _381  and  _384
REMARK  157  A    between atoms: _384  and  _385
REMARK  158  A    between atoms: _385  and  _386
REMARK  159  A    between atoms: _391  and  _393
REMARK  160  A    between atoms: _393  and  _394
REMARK  161  A    between atoms: _396  and  _398
REMARK  162  A    between atoms: _398  and  _399
REMARK  163  A    between atoms: _401  and  _403
REMARK  164  A    between atoms: _403  and  _404
REMARK  165  A    between atoms: _403  and  _406
REMARK  166  A    between atoms: _406  and  _407
REMARK  167  A    between atoms: _407  and  _408
REMARK  168  A    between atoms: _408  and  _409
REMARK  169  A    between atoms: _418  and  _420
REMARK  170  A    between atoms: _420  and  _421
REMARK  171  A    between atoms: _420  and  _423
REMARK  172  A    between atoms: _423  and  _424
REMARK  173  A    between atoms: _427  and  _429
REMARK  174  A    between atoms: _429  and  _430
REMARK  175  A    between atoms: _429  and  _432
REMARK  176  A    between atoms: _435  and  _437
REMARK  177  A    between atoms: _437  and  _438
REMARK  178  A    between atoms: _437  and  _440
REMARK  179  A    between atoms: _443  and  _445
REMARK  180  A    between atoms: _445  and  _446
REMARK  181  A    between atoms: _448  and  _450
REMARK  182  A    between atoms: _450  and  _451
REMARK  183  A    between atoms: _450  and  _453
REMARK  184  A    between atoms: _453  and  _454
REMARK  185  A    between atoms: _454  and  _455
REMARK  186  A    between atoms: _455  and  _456
REMARK  187  A    between atoms: _456  and  _457
REMARK  188  A    between atoms: _461  and  _463
REMARK  189  A    between atoms: _463  and  _464
REMARK  190  A    between atoms: _463  and  _466
REMARK  191  A    between atoms: _466  and  _467
REMARK  192  A    between atoms: _467  and  _468
REMARK  193  A    between atoms: _468  and  _469
REMARK  194  A    between atoms: _478  and  _480
REMARK  195  A    between atoms: _480  and  _481
REMARK  196  A    between atoms: _484  and  _486
REMARK  197  A    between atoms: _486  and  _487
REMARK  198  A    between atoms: _486  and  _489
REMARK  199  A    between atoms: _489  and  _490
REMARK  200  A    between atoms: _490  and  _491
REMARK  201  A    between atoms: _491  and  _492
REMARK  202  A    between atoms: _501  and  _503
REMARK  203  A    between atoms: _503  and  _504
REMARK  204  A    between atoms: _507  and  _509
REMARK  205  A    between atoms: _509  and  _510
REMARK  206  A    between atoms: _509  and  _512
REMARK  207  A    between atoms: _512  and  _513
REMARK  208  A    between atoms: _513  and  _514
REMARK  209  A    between atoms: _514  and  _515
REMARK  210  A    between atoms: _524  and  _526
REMARK  211  A    between atoms: _526  and  _527
REMARK  212  A    between atoms: _529  and  _531
REMARK  213  A    between atoms: _531  and  _532
REMARK  214  A    between atoms: _531  and  _534
REMARK  215  A    between atoms: _534  and  _535
REMARK  216  A    between atoms: _535  and  _536
REMARK  217  A    between atoms: _539  and  _541
REMARK  218  A    between atoms: _541  and  _542
REMARK  219  A    between atoms: _541  and  _544
REMARK  220  A    between atoms: _544  and  _545
REMARK  221  A    between atoms: _548  and  _550
REMARK  222  A    between atoms: _550  and  _551
REMARK  223  A    between atoms: _550  and  _553
REMARK  224  A    between atoms: _553  and  _554
REMARK  225  A    between atoms: _557  and  _559
REMARK  226  A    between atoms: _559  and  _560
REMARK  227  A    between atoms: _559  and  _562
REMARK  228  A    between atoms: _562  and  _563
REMARK  229  A    between atoms: _563  and  _564
REMARK  230  A    between atoms: _564  and  _565
REMARK  231  A    between atoms: _574  and  _576
REMARK  232  A    between atoms: _576  and  _577
REMARK  233  A    between atoms: _576  and  _579
REMARK  234  A    between atoms: _579  and  _580
REMARK  235  A    between atoms: _583  and  _585
REMARK  236  A    between atoms: _585  and  _586
REMARK  237  A    between atoms: _585  and  _588
REMARK  238  A    between atoms: _588  and  _589
REMARK  239  A    between atoms: _589  and  _590
REMARK  240  A    between atoms: _593  and  _595
REMARK  241  A    between atoms: _595  and  _596
REMARK  242  A    between atoms: _595  and  _598
REMARK  243  A    between atoms: _598  and  _599
REMARK  244  A    between atoms: _599  and  _600
REMARK  245  A    between atoms: _605  and  _607
REMARK  246  A    between atoms: _607  and  _608
REMARK  247  A    between atoms: _607  and  _610
REMARK  248  A    between atoms: _610  and  _611
REMARK  249  A    between atoms: _611  and  _612
REMARK  250  A    between atoms: _615  and  _617
REMARK  251  A    between atoms: _617  and  _618
REMARK  252  A    between atoms: _617  and  _620
REMARK  253  A    between atoms: _620  and  _621
REMARK  254  A    between atoms: _627  and  _629
REMARK  255  A    between atoms: _629  and  _630
REMARK  256  A    between atoms: _629  and  _632
REMARK  257  A    between atoms: _632  and  _633
REMARK  258  A    between atoms: _639  and  _641
REMARK  259  A    between atoms: _641  and  _642
REMARK  260  A    between atoms: _641  and  _644
REMARK  261  A    between atoms: _644  and  _645
REMARK  262  A    between atoms: _648  and  _650
REMARK  263  A    between atoms: _650  and  _651
REMARK  264  A    between atoms: _650  and  _653
REMARK  265  A    between atoms: _653  and  _654
REMARK  266  A    between atoms: _659  and  _660
REMARK  267  A    between atoms: _662  and  _664
REMARK  268  A    between atoms: _664  and  _665
REMARK  269  A    between atoms: _668  and  _670
REMARK  270  A    between atoms: _670  and  _671
REMARK  271  A    between atoms: _670  and  _673
REMARK  272  A    between atoms: _673  and  _674
REMARK  273  A    between atoms: _674  and  _675
REMARK  274  A    between atoms: _681  and  _682
REMARK  275  A    between atoms: _687  and  _689
REMARK  276  A    between atoms: _689  and  _690
REMARK  277  A    between atoms: _689  and  _692
REMARK  278  A    between atoms: _692  and  _693
REMARK  279  A    between atoms: _696  and  _698
REMARK  280  A    between atoms: _698  and  _699
REMARK  281  A    between atoms: _698  and  _701
REMARK  282  A    between atoms: _701  and  _702
REMARK  283  A    between atoms: _702  and  _703
REMARK  284  A    between atoms: _706  and  _708
REMARK  285  A    between atoms: _708  and  _709
REMARK  286  A    between atoms: _708  and  _711
REMARK                            x       y       z     vdW  Elec       q    Type
REMARK                         _______ _______ _______ _____ _____    ______ ____
ROOT
ATOM      1  O   HOH     1      23.207 118.182  15.369  0.00  0.00    +0.000 OA
ENDROOT
TORSDOF 0
REMARK  Name = ../refined-set-2016/4tmk/4tmk_pocket.pdb
REMARK  286 active torsions:
REMARK  status: ('A' for Active; 'I' for Inactive)
REMARK    1  A    between atoms: _1  and  _3
REMARK    2  A    between atoms: _3  and  _4
REMARK    3  A    between atoms: _3  and  _6
REMARK    4  A    between atoms: _6  and  _7
REMARK    5  A    between atoms: _10  and  _12
REMARK    6  A    between atoms: _12  and  _13
REMARK    7  A    between atoms: _12  and  _15
REMARK    8  A    between atoms: _15  and  _16
REMARK    9  A    between atoms: _16  and  _17
REMARK   10  A    between atoms: _20  and  _22
REMARK   11  A    between atoms: _22  and  _23
REMARK   12  A    between atoms: _25  and  _27
REMARK   13  A    between atoms: _27  and  _28
REMARK   14  A    between atoms: _27  and  _30
REMARK   15  A    between atoms: _30  and  _31
REMARK   16  A    between atoms: _34  and  _36
REMARK   17  A    between atoms: _36  and  _37
REMARK   18  A    between atoms: _36  and  _39
REMARK   19  A    between atoms: _39  and  _40
REMARK   20  A    between atoms: _40  and  _41
REMARK   21  A    between atoms: _44  and  _46
REMARK   22  A    between atoms: _46  and  _47
REMARK   23  A    between atoms: _49  and  _51
REMARK   24  A    between atoms: _51  and  _52
REMARK   25  A    between atoms: _55  and  _57
REMARK   26  A    between atoms: _57  and  _58
REMARK   27  A    between atoms: _60  and  _62
REMARK   28  A    between atoms: _62  and  _63
REMARK   29  A    between atoms: _62  and  _65
REMARK   30  A    between atoms: _65  and  _66
REMARK   31  A    between atoms: _66  and  _67
REMARK   32  A    between atoms: _67  and  _68
REMARK   33  A    between atoms: _68  and  _69
REMARK   34  A    between atoms: _73  and  _75
REMARK   35  A    between atoms: _75  and  _76
REMARK   36  A    between atoms: _75  and  _78
REMARK   37  A    between atoms: _78  and  _79
REMARK   38  A    between atoms: _82  and  _84
REMARK   39  A    between atoms: _84  and  _85
REMARK   40  A    between atoms: _84  and  _87
REMARK   41  A    between atoms: _87  and  _88
REMARK   42  A    between atoms: _91  and  _93
REMARK   43  A    between atoms: _93  and  _94
REMARK   44  A    between atoms: _97  and  _99
REMARK   45  A    between atoms: _99  and  _100
REMARK   46  A    between atoms: _99  and  _102
REMARK   47  A    between atoms: _102  and  _103
REMARK   48  A    between atoms: _103  and  _104
REMARK   49  A    between atoms: _104  and  _105
REMARK   50  A    between atoms: _114  and  _116
REMARK   51  A    between atoms: _116  and  _117
REMARK   52  A    between atoms: _116  and  _119
REMARK   53  A    between atoms: _119  and  _120
REMARK   54  A    between atoms: _125  and  _127
REMARK   55  A    between atoms: _127  and  _128
REMARK   56  A    between atoms: _127  and  _130
REMARK   57  A    between atoms: _130  and  _131
REMARK   58  A    between atoms: _131  and  _132
REMARK   59  A    between atoms: _132  and  _133
REMARK   60  A    between atoms: _142  and  _144
REMARK   61  A    between atoms: _144  and  _145
REMARK   62  A    between atoms: _144  and  _147
REMARK   63  A    between atoms: _147  and  _148
REMARK   64  A    between atoms: _148  and  _149
REMARK   65  A    between atoms: _153  and  _154
REMARK   66  A    between atoms: _159  and  _161
REMARK   67  A    between atoms: _161  and  _162
REMARK   68  A    between atoms: _164  and  _166
REMARK   69  A    between atoms: _166  and  _167
REMARK   70  A    between atoms: _166  and  _169
REMARK   71  A    between atoms: _169  and  _170
REMARK   72  A    between atoms: _170  and  _171
REMARK   73  A    between atoms: _171  and  _172
REMARK   74  A    between atoms: _181  and  _183
REMARK   75  A    between atoms: _183  and  _184
REMARK   76  A    between atoms: _183  and  _186
REMARK   77  A    between atoms: _186  and  _187
REMARK   78  A    between atoms: _190  and  _192
REMARK   79  A    between atoms: _192  and  _193
REMARK   80  A    between atoms: _192  and  _195
REMARK   81  A    between atoms: _195  and  _196
REMARK   82  A    between atoms: _199  and  _201
REMARK   83  A    between atoms: _201  and  _202
REMARK   84  A    between atoms: _201  and  _204
REMARK   85  A    between atoms: _204  and  _205
REMARK   86  A    between atoms: _205  and  _206
REMARK   87  A    between atoms: _209  and  _211
REMARK   88  A    between atoms: _211  and  _212
REMARK   89  A    between atoms: _211  and  _214
REMARK   90  A    between atoms: _217  and  _219
REMARK   91  A    between atoms: _219  and  _220
REMARK   92  A    between atoms: _219  and  _222
REMARK   93  A    between atoms: _222  and  _223
REMARK   94  A    between atoms: _223  and  _224
REMARK   95  A    between atoms: _226  and  _228
REMARK   96  A    between atoms: _228  and  _229
REMARK   97  A    between atoms: _228  and  _231
REMARK   98  A    between atoms: _231  and  _232
REMARK   99  A    between atoms: _238  and  _240
REMARK  100  A    between atoms: _240  and  _241
REMARK  101  A    between atoms: _240  and  _243
REMARK  102  A    between atoms: _243  and  _244
REMARK  103  A    between atoms: _249  and  _250
REMARK  104  A    between atoms: _252  and  _254
REMARK  105  A    between atoms: _254  and  _255
REMARK  106  A    between atoms: _258  and  _260
REMARK  107  A    between atoms: _260  and  _261
REMARK  108  A    between atoms: _260  and  _263
REMARK  109  A    between atoms: _263  and  _264
REMARK  110  A    between atoms: _264  and  _265
REMARK  111  A    between atoms: _265  and  _266
REMARK  112  A    between atoms: _275  and  _277
REMARK  113  A    between atoms: _277  and  _278
REMARK  114  A    between atoms: _277  and  _280
REMARK  115  A    between atoms: _280  and  _281
REMARK  116  A    between atoms: _284  and  _286
REMARK  117  A    between atoms: _286  and  _287
REMARK  118  A    between atoms: _286  and  _289
REMARK  119  A    between atoms: _289  and  _290
REMARK  120  A    between atoms: _290  and  _291
REMARK  121  A    between atoms: _291  and  _292
REMARK  122  A    between atoms: _301  and  _303
REMARK  123  A    between atoms: _303  and  _304
REMARK  124  A    between atoms: _303  and  _306
REMARK  125  A    between atoms: _306  and  _307
REMARK  126  A    between atoms: _312  and  _314
REMARK  127  A    between atoms: _314  and  _315
REMARK  128  A    between atoms: _314  and  _317
REMARK  129  A    between atoms: _317  and  _318
REMARK  130  A    between atoms: _321  and  _323
REMARK  131  A    between atoms: _323  and  _324
REMARK  132  A    between atoms: _323  and  _326
REMARK  133  A    between atoms: _326  and  _327
REMARK  134  A    between atoms: _330  and  _332
REMARK  135  A    between atoms: _332  and  _333
REMARK  136  A    between atoms: _332  and  _335
REMARK  137  A    between atoms: _335  and  _336
REMARK  138  A    between atoms: _338  and  _340
REMARK  139  A    between atoms: _340  and  _341
REMARK  140  A    between atoms: _340  and  _343
REMARK  141  A    between atoms: _343  and  _344
REMARK  142  A    between atoms: _347  and  _349
REMARK  143  A    between atoms: _349  and  _350
REMARK  144  A    between atoms: _349  and  _352
REMARK  145  A    between atoms: _352  and  _353
REMARK  146  A    between atoms: _353  and  _354
REMARK  147  A    between atoms: _359  and  _361
REMARK  148  A    between atoms: _361  and  _362
REMARK  149  A    between atoms: _365  and  _367
REMARK  150  A    between atoms: _367  and  _368
REMARK  151  A    between atoms: _367  and  _370
REMARK  152  A    between atoms: _370  and  _371
REMARK  153  A    between atoms: _376  and  _377
REMARK  154  A    between atoms: _379  and  _381
REMARK  155  A    between atoms: _381  and  _382
REMARK  156  A    between atoms: _381  and  _384
REMARK  157  A    between atoms: _384  and  _385
REMARK  158  A    between atoms: _385  and  _386
REMARK  159  A    between atoms: _391  and  _393
REMARK  160  A    between atoms: _393  and  _394
REMARK  161  A    between atoms: _396  and  _398
REMARK  162  A    between atoms: _398  and  _399
REMARK  163  A    between atoms: _401  and  _403
REMARK  164  A    between atoms: _403  and  _404
REMARK  165  A    between atoms: _403  and  _406
REMARK  166  A    between atoms: _406  and  _407
REMARK  167  A    between atoms: _407  and  _408
REMARK  168  A    between atoms: _408  and  _409
REMARK  169  A    between atoms: _418  and  _420
REMARK  170  A    between atoms: _420  and  _421
REMARK  171  A    between atoms: _420  and  _423
REMARK  172  A    between atoms: _423  and  _424
REMARK  173  A    between atoms: _427  and  _429
REMARK  174  A    between atoms: _429  and  _430
REMARK  175  A    between atoms: _429  and  _432
REMARK  176  A    between atoms: _435  and  _437
REMARK  177  A    between atoms: _437  and  _438
REMARK  178  A    between atoms: _437  and  _440
REMARK  179  A    between atoms: _443  and  _445
REMARK  180  A    between atoms: _445  and  _446
REMARK  181  A    between atoms: _448  and  _450
REMARK  182  A    between atoms: _450  and  _451
REMARK  183  A    between atoms: _450  and  _453
REMARK  184  A    between atoms: _453  and  _454
REMARK  185  A    between atoms: _454  and  _455
REMARK  186  A    between atoms: _455  and  _456
REMARK  187  A    between atoms: _456  and  _457
REMARK  188  A    between atoms: _461  and  _463
REMARK  189  A    between atoms: _463  and  _464
REMARK  190  A    between atoms: _463  and  _466
REMARK  191  A    between atoms: _466  and  _467
REMARK  192  A    between atoms: _467  and  _468
REMARK  193  A    between atoms: _468  and  _469
REMARK  194  A    between atoms: _478  and  _480
REMARK  195  A    between atoms: _480  and  _481
REMARK  196  A    between atoms: _484  and  _486
REMARK  197  A    between atoms: _486  and  _487
REMARK  198  A    between atoms: _486  and  _489
REMARK  199  A    between atoms: _489  and  _490
REMARK  200  A    between atoms: _490  and  _491
REMARK  201  A    between atoms: _491  and  _492
REMARK  202  A    between atoms: _501  and  _503
REMARK  203  A    between atoms: _503  and  _504
REMARK  204  A    between atoms: _507  and  _509
REMARK  205  A    between atoms: _509  and  _510
REMARK  206  A    between atoms: _509  and  _512
REMARK  207  A    between atoms: _512  and  _513
REMARK  208  A    between atoms: _513  and  _514
REMARK  209  A    between atoms: _514  and  _515
REMARK  210  A    between atoms: _524  and  _526
REMARK  211  A    between atoms: _526  and  _527
REMARK  212  A    between atoms: _529  and  _531
REMARK  213  A    between atoms: _531  and  _532
REMARK  214  A    between atoms: _531  and  _534
REMARK  215  A    between atoms: _534  and  _535
REMARK  216  A    between atoms: _535  and  _536
REMARK  217  A    between atoms: _539  and  _541
REMARK  218  A    between atoms: _541  and  _542
REMARK  219  A    between atoms: _541  and  _544
REMARK  220  A    between atoms: _544  and  _545
REMARK  221  A    between atoms: _548  and  _550
REMARK  222  A    between atoms: _550  and  _551
REMARK  223  A    between atoms: _550  and  _553
REMARK  224  A    between atoms: _553  and  _554
REMARK  225  A    between atoms: _557  and  _559
REMARK  226  A    between atoms: _559  and  _560
REMARK  227  A    between atoms: _559  and  _562
REMARK  228  A    between atoms: _562  and  _563
REMARK  229  A    between atoms: _563  and  _564
REMARK  230  A    between atoms: _564  and  _565
REMARK  231  A    between atoms: _574  and  _576
REMARK  232  A    between atoms: _576  and  _577
REMARK  233  A    between atoms: _576  and  _579
REMARK  234  A    between atoms: _579  and  _580
REMARK  235  A    between atoms: _583  and  _585
REMARK  236  A    between atoms: _585  and  _586
REMARK  237  A    between atoms: _585  and  _588
REMARK  238  A    between atoms: _588  and  _589
REMARK  239  A    between atoms: _589  and  _590
REMARK  240  A    between atoms: _593  and  _595
REMARK  241  A    between atoms: _595  and  _596
REMARK  242  A    between atoms: _595  and  _598
REMARK  243  A    between atoms: _598  and  _599
REMARK  244  A    between atoms: _599  and  _600
REMARK  245  A    between atoms: _605  and  _607
REMARK  246  A    between atoms: _607  and  _608
REMARK  247  A    between atoms: _607  and  _610
REMARK  248  A    between atoms: _610  and  _611
REMARK  249  A    between atoms: _611  and  _612
REMARK  250  A    between atoms: _615  and  _617
REMARK  251  A    between atoms: _617  and  _618
REMARK  252  A    between atoms: _617  and  _620
REMARK  253  A    between atoms: _620  and  _621
REMARK  254  A    between atoms: _627  and  _629
REMARK  255  A    between atoms: _629  and  _630
REMARK  256  A    between atoms: _629  and  _632
REMARK  257  A    between atoms: _632  and  _633
REMARK  258  A    between atoms: _639  and  _641
REMARK  259  A    between atoms: _641  and  _642
REMARK  260  A    between atoms: _641  and  _644
REMARK  261  A    between atoms: _644  and  _645
REMARK  262  A    between atoms: _648  and  _650
REMARK  263  A    between atoms: _650  and  _651
REMARK  264  A    between atoms: _650  and  _653
REMARK  265  A    between atoms: _653  and  _654
REMARK  266  A    between atoms: _659  and  _660
REMARK  267  A    between atoms: _662  and  _664
REMARK  268  A    between atoms: _664  and  _665
REMARK  269  A    between atoms: _668  and  _670
REMARK  270  A    between atoms: _670  and  _671
REMARK  271  A    between atoms: _670  and  _673
REMARK  272  A    between atoms: _673  and  _674
REMARK  273  A    between atoms: _674  and  _675
REMARK  274  A    between atoms: _681  and  _682
REMARK  275  A    between atoms: _687  and  _689
REMARK  276  A    between atoms: _689  and  _690
REMARK  277  A    between atoms: _689  and  _692
REMARK  278  A    between atoms: _692  and  _693
REMARK  279  A    between atoms: _696  and  _698
REMARK  280  A    between atoms: _698  and  _699
REMARK  281  A    between atoms: _698  and  _701
REMARK  282  A    between atoms: _701  and  _702
REMARK  283  A    between atoms: _702  and  _703
REMARK  284  A    between atoms: _706  and  _708
REMARK  285  A    between atoms: _708  and  _709
REMARK  286  A    between atoms: _708  and  _711
REMARK                            x       y       z     vdW  Elec       q    Type
REMARK                         _______ _______ _______ _____ _____    ______ ____
ROOT
ATOM      1  O   HOH     1      20.402 118.508  16.305  0.00  0.00    +0.000 OA
ENDROOT
TORSDOF 0
REMARK  Name = ../refined-set-2016/4tmk/4tmk_pocket.pdb
REMARK  286 active torsions:
REMARK  status: ('A' for Active; 'I' for Inactive)
REMARK    1  A    between atoms: _1  and  _3
REMARK    2  A    between atoms: _3  and  _4
REMARK    3  A    between atoms: _3  and  _6
REMARK    4  A    between atoms: _6  and  _7
REMARK    5  A    between atoms: _10  and  _12
REMARK    6  A    between atoms: _12  and  _13
REMARK    7  A    between atoms: _12  and  _15
REMARK    8  A    between atoms: _15  and  _16
REMARK    9  A    between atoms: _16  and  _17
REMARK   10  A    between atoms: _20  and  _22
REMARK   11  A    between atoms: _22  and  _23
REMARK   12  A    between atoms: _25  and  _27
REMARK   13  A    between atoms: _27  and  _28
REMARK   14  A    between atoms: _27  and  _30
REMARK   15  A    between atoms: _30  and  _31
REMARK   16  A    between atoms: _34  and  _36
REMARK   17  A    between atoms: _36  and  _37
REMARK   18  A    between atoms: _36  and  _39
REMARK   19  A    between atoms: _39  and  _40
REMARK   20  A    between atoms: _40  and  _41
REMARK   21  A    between atoms: _44  and  _46
REMARK   22  A    between atoms: _46  and  _47
REMARK   23  A    between atoms: _49  and  _51
REMARK   24  A    between atoms: _51  and  _52
REMARK   25  A    between atoms: _55  and  _57
REMARK   26  A    between atoms: _57  and  _58
REMARK   27  A    between atoms: _60  and  _62
REMARK   28  A    between atoms: _62  and  _63
REMARK   29  A    between atoms: _62  and  _65
REMARK   30  A    between atoms: _65  and  _66
REMARK   31  A    between atoms: _66  and  _67
REMARK   32  A    between atoms: _67  and  _68
REMARK   33  A    between atoms: _68  and  _69
REMARK   34  A    between atoms: _73  and  _75
REMARK   35  A    between atoms: _75  and  _76
REMARK   36  A    between atoms: _75  and  _78
REMARK   37  A    between atoms: _78  and  _79
REMARK   38  A    between atoms: _82  and  _84
REMARK   39  A    between atoms: _84  and  _85
REMARK   40  A    between atoms: _84  and  _87
REMARK   41  A    between atoms: _87  and  _88
REMARK   42  A    between atoms: _91  and  _93
REMARK   43  A    between atoms: _93  and  _94
REMARK   44  A    between atoms: _97  and  _99
REMARK   45  A    between atoms: _99  and  _100
REMARK   46  A    between atoms: _99  and  _102
REMARK   47  A    between atoms: _102  and  _103
REMARK   48  A    between atoms: _103  and  _104
REMARK   49  A    between atoms: _104  and  _105
REMARK   50  A    between atoms: _114  and  _116
REMARK   51  A    between atoms: _116  and  _117
REMARK   52  A    between atoms: _116  and  _119
REMARK   53  A    between atoms: _119  and  _120
REMARK   54  A    between atoms: _125  and  _127
REMARK   55  A    between atoms: _127  and  _128
REMARK   56  A    between atoms: _127  and  _130
REMARK   57  A    between atoms: _130  and  _131
REMARK   58  A    between atoms: _131  and  _132
REMARK   59  A    between atoms: _132  and  _133
REMARK   60  A    between atoms: _142  and  _144
REMARK   61  A    between atoms: _144  and  _145
REMARK   62  A    between atoms: _144  and  _147
REMARK   63  A    between atoms: _147  and  _148
REMARK   64  A    between atoms: _148  and  _149
REMARK   65  A    between atoms: _153  and  _154
REMARK   66  A    between atoms: _159  and  _161
REMARK   67  A    between atoms: _161  and  _162
REMARK   68  A    between atoms: _164  and  _166
REMARK   69  A    between atoms: _166  and  _167
REMARK   70  A    between atoms: _166  and  _169
REMARK   71  A    between atoms: _169  and  _170
REMARK   72  A    between atoms: _170  and  _171
REMARK   73  A    between atoms: _171  and  _172
REMARK   74  A    between atoms: _181  and  _183
REMARK   75  A    between atoms: _183  and  _184
REMARK   76  A    between atoms: _183  and  _186
REMARK   77  A    between atoms: _186  and  _187
REMARK   78  A    between atoms: _190  and  _192
REMARK   79  A    between atoms: _192  and  _193
REMARK   80  A    between atoms: _192  and  _195
REMARK   81  A    between atoms: _195  and  _196
REMARK   82  A    between atoms: _199  and  _201
REMARK   83  A    between atoms: _201  and  _202
REMARK   84  A    between atoms: _201  and  _204
REMARK   85  A    between atoms: _204  and  _205
REMARK   86  A    between atoms: _205  and  _206
REMARK   87  A    between atoms: _209  and  _211
REMARK   88  A    between atoms: _211  and  _212
REMARK   89  A    between atoms: _211  and  _214
REMARK   90  A    between atoms: _217  and  _219
REMARK   91  A    between atoms: _219  and  _220
REMARK   92  A    between atoms: _219  and  _222
REMARK   93  A    between atoms: _222  and  _223
REMARK   94  A    between atoms: _223  and  _224
REMARK   95  A    between atoms: _226  and  _228
REMARK   96  A    between atoms: _228  and  _229
REMARK   97  A    between atoms: _228  and  _231
REMARK   98  A    between atoms: _231  and  _232
REMARK   99  A    between atoms: _238  and  _240
REMARK  100  A    between atoms: _240  and  _241
REMARK  101  A    between atoms: _240  and  _243
REMARK  102  A    between atoms: _243  and  _244
REMARK  103  A    between atoms: _249  and  _250
REMARK  104  A    between atoms: _252  and  _254
REMARK  105  A    between atoms: _254  and  _255
REMARK  106  A    between atoms: _258  and  _260
REMARK  107  A    between atoms: _260  and  _261
REMARK  108  A    between atoms: _260  and  _263
REMARK  109  A    between atoms: _263  and  _264
REMARK  110  A    between atoms: _264  and  _265
REMARK  111  A    between atoms: _265  and  _266
REMARK  112  A    between atoms: _275  and  _277
REMARK  113  A    between atoms: _277  and  _278
REMARK  114  A    between atoms: _277  and  _280
REMARK  115  A    between atoms: _280  and  _281
REMARK  116  A    between atoms: _284  and  _286
REMARK  117  A    between atoms: _286  and  _287
REMARK  118  A    between atoms: _286  and  _289
REMARK  119  A    between atoms: _289  and  _290
REMARK  120  A    between atoms: _290  and  _291
REMARK  121  A    between atoms: _291  and  _292
REMARK  122  A    between atoms: _301  and  _303
REMARK  123  A    between atoms: _303  and  _304
REMARK  124  A    between atoms: _303  and  _306
REMARK  125  A    between atoms: _306  and  _307
REMARK  126  A    between atoms: _312  and  _314
REMARK  127  A    between atoms: _314  and  _315
REMARK  128  A    between atoms: _314  and  _317
REMARK  129  A    between atoms: _317  and  _318
REMARK  130  A    between atoms: _321  and  _323
REMARK  131  A    between atoms: _323  and  _324
REMARK  132  A    between atoms: _323  and  _326
REMARK  133  A    between atoms: _326  and  _327
REMARK  134  A    between atoms: _330  and  _332
REMARK  135  A    between atoms: _332  and  _333
REMARK  136  A    between atoms: _332  and  _335
REMARK  137  A    between atoms: _335  and  _336
REMARK  138  A    between atoms: _338  and  _340
REMARK  139  A    between atoms: _340  and  _341
REMARK  140  A    between atoms: _340  and  _343
REMARK  141  A    between atoms: _343  and  _344
REMARK  142  A    between atoms: _347  and  _349
REMARK  143  A    between atoms: _349  and  _350
REMARK  144  A    between atoms: _349  and  _352
REMARK  145  A    between atoms: _352  and  _353
REMARK  146  A    between atoms: _353  and  _354
REMARK  147  A    between atoms: _359  and  _361
REMARK  148  A    between atoms: _361  and  _362
REMARK  149  A    between atoms: _365  and  _367
REMARK  150  A    between atoms: _367  and  _368
REMARK  151  A    between atoms: _367  and  _370
REMARK  152  A    between atoms: _370  and  _371
REMARK  153  A    between atoms: _376  and  _377
REMARK  154  A    between atoms: _379  and  _381
REMARK  155  A    between atoms: _381  and  _382
REMARK  156  A    between atoms: _381  and  _384
REMARK  157  A    between atoms: _384  and  _385
REMARK  158  A    between atoms: _385  and  _386
REMARK  159  A    between atoms: _391  and  _393
REMARK  160  A    between atoms: _393  and  _394
REMARK  161  A    between atoms: _396  and  _398
REMARK  162  A    between atoms: _398  and  _399
REMARK  163  A    between atoms: _401  and  _403
REMARK  164  A    between atoms: _403  and  _404
REMARK  165  A    between atoms: _403  and  _406
REMARK  166  A    between atoms: _406  and  _407
REMARK  167  A    between atoms: _407  and  _408
REMARK  168  A    between atoms: _408  and  _409
REMARK  169  A    between atoms: _418  and  _420
REMARK  170  A    between atoms: _420  and  _421
REMARK  171  A    between atoms: _420  and  _423
REMARK  172  A    between atoms: _423  and  _424
REMARK  173  A    between atoms: _427  and  _429
REMARK  174  A    between atoms: _429  and  _430
REMARK  175  A    between atoms: _429  and  _432
REMARK  176  A    between atoms: _435  and  _437
REMARK  177  A    between atoms: _437  and  _438
REMARK  178  A    between atoms: _437  and  _440
REMARK  179  A    between atoms: _443  and  _445
REMARK  180  A    between atoms: _445  and  _446
REMARK  181  A    between atoms: _448  and  _450
REMARK  182  A    between atoms: _450  and  _451
REMARK  183  A    between atoms: _450  and  _453
REMARK  184  A    between atoms: _453  and  _454
REMARK  185  A    between atoms: _454  and  _455
REMARK  186  A    between atoms: _455  and  _456
REMARK  187  A    between atoms: _456  and  _457
REMARK  188  A    between atoms: _461  and  _463
REMARK  189  A    between atoms: _463  and  _464
REMARK  190  A    between atoms: _463  and  _466
REMARK  191  A    between atoms: _466  and  _467
REMARK  192  A    between atoms: _467  and  _468
REMARK  193  A    between atoms: _468  and  _469
REMARK  194  A    between atoms: _478  and  _480
REMARK  195  A    between atoms: _480  and  _481
REMARK  196  A    between atoms: _484  and  _486
REMARK  197  A    between atoms: _486  and  _487
REMARK  198  A    between atoms: _486  and  _489
REMARK  199  A    between atoms: _489  and  _490
REMARK  200  A    between atoms: _490  and  _491
REMARK  201  A    between atoms: _491  and  _492
REMARK  202  A    between atoms: _501  and  _503
REMARK  203  A    between atoms: _503  and  _504
REMARK  204  A    between atoms: _507  and  _509
REMARK  205  A    between atoms: _509  and  _510
REMARK  206  A    between atoms: _509  and  _512
REMARK  207  A    between atoms: _512  and  _513
REMARK  208  A    between atoms: _513  and  _514
REMARK  209  A    between atoms: _514  and  _515
REMARK  210  A    between atoms: _524  and  _526
REMARK  211  A    between atoms: _526  and  _527
REMARK  212  A    between atoms: _529  and  _531
REMARK  213  A    between atoms: _531  and  _532
REMARK  214  A    between atoms: _531  and  _534
REMARK  215  A    between atoms: _534  and  _535
REMARK  216  A    between atoms: _535  and  _536
REMARK  217  A    between atoms: _539  and  _541
REMARK  218  A    between atoms: _541  and  _542
REMARK  219  A    between atoms: _541  and  _544
REMARK  220  A    between atoms: _544  and  _545
REMARK  221  A    between atoms: _548  and  _550
REMARK  222  A    between atoms: _550  and  _551
REMARK  223  A    between atoms: _550  and  _553
REMARK  224  A    between atoms: _553  and  _554
REMARK  225  A    between atoms: _557  and  _559
REMARK  226  A    between atoms: _559  and  _560
REMARK  227  A    between atoms: _559  and  _562
REMARK  228  A    between atoms: _562  and  _563
REMARK  229  A    between atoms: _563  and  _564
REMARK  230  A    between atoms: _564  and  _565
REMARK  231  A    between atoms: _574  and  _576
REMARK  232  A    between atoms: _576  and  _577
REMARK  233  A    between atoms: _576  and  _579
REMARK  234  A    between atoms: _579  and  _580
REMARK  235  A    between atoms: _583  and  _585
REMARK  236  A    between atoms: _585  and  _586
REMARK  237  A    between atoms: _585  and  _588
REMARK  238  A    between atoms: _588  and  _589
REMARK  239  A    between atoms: _589  and  _590
REMARK  240  A    between atoms: _593  and  _595
REMARK  241  A    between atoms: _595  and  _596
REMARK  242  A    between atoms: _595  and  _598
REMARK  243  A    between atoms: _598  and  _599
REMARK  244  A    between atoms: _599  and  _600
REMARK  245  A    between atoms: _605  and  _607
REMARK  246  A    between atoms: _607  and  _608
REMARK  247  A    between atoms: _607  and  _610
REMARK  248  A    between atoms: _610  and  _611
REMARK  249  A    between atoms: _611  and  _612
REMARK  250  A    between atoms: _615  and  _617
REMARK  251  A    between atoms: _617  and  _618
REMARK  252  A    between atoms: _617  and  _620
REMARK  253  A    between atoms: _620  and  _621
REMARK  254  A    between atoms: _627  and  _629
REMARK  255  A    between atoms: _629  and  _630
REMARK  256  A    between atoms: _629  and  _632
REMARK  257  A    between atoms: _632  and  _633
REMARK  258  A    between atoms: _639  and  _641
REMARK  259  A    between atoms: _641  and  _642
REMARK  260  A    between atoms: _641  and  _644
REMARK  261  A    between atoms: _644  and  _645
REMARK  262  A    between atoms: _648  and  _650
REMARK  263  A    between atoms: _650  and  _651
REMARK  264  A    between atoms: _650  and  _653
REMARK  265  A    between atoms: _653  and  _654
REMARK  266  A    between atoms: _659  and  _660
REMARK  267  A    between atoms: _662  and  _664
REMARK  268  A    between atoms: _664  and  _665
REMARK  269  A    between atoms: _668  and  _670
REMARK  270  A    between atoms: _670  and  _671
REMARK  271  A    between atoms: _670  and  _673
REMARK  272  A    between atoms: _673  and  _674
REMARK  273  A    between atoms: _674  and  _675
REMARK  274  A    between atoms: _681  and  _682
REMARK  275  A    between atoms: _687  and  _689
REMARK  276  A    between atoms: _689  and  _690
REMARK  277  A    between atoms: _689  and  _692
REMARK  278  A    between atoms: _692  and  _693
REMARK  279  A    between atoms: _696  and  _698
REMARK  280  A    between atoms: _698  and  _699
REMARK  281  A    between atoms: _698  and  _701
REMARK  282  A    between atoms: _701  and  _702
REMARK  283  A    between atoms: _702  and  _703
REMARK  284  A    between atoms: _706  and  _708
REMARK  285  A    between atoms: _708  and  _709
REMARK  286  A    between atoms: _708  and  _711
REMARK                            x       y       z     vdW  Elec       q    Type
REMARK                         _______ _______ _______ _____ _____    ______ ____
ROOT
ATOM      1  O   HOH     1      17.728 115.953  14.750  0.00  0.00    +0.000 OA
ENDROOT
TORSDOF 0
REMARK  Name = ../refined-set-2016/4tmk/4tmk_pocket.pdb
REMARK  286 active torsions:
REMARK  status: ('A' for Active; 'I' for Inactive)
REMARK    1  A    between atoms: _1  and  _3
REMARK    2  A    between atoms: _3  and  _4
REMARK    3  A    between atoms: _3  and  _6
REMARK    4  A    between atoms: _6  and  _7
REMARK    5  A    between atoms: _10  and  _12
REMARK    6  A    between atoms: _12  and  _13
REMARK    7  A    between atoms: _12  and  _15
REMARK    8  A    between atoms: _15  and  _16
REMARK    9  A    between atoms: _16  and  _17
REMARK   10  A    between atoms: _20  and  _22
REMARK   11  A    between atoms: _22  and  _23
REMARK   12  A    between atoms: _25  and  _27
REMARK   13  A    between atoms: _27  and  _28
REMARK   14  A    between atoms: _27  and  _30
REMARK   15  A    between atoms: _30  and  _31
REMARK   16  A    between atoms: _34  and  _36
REMARK   17  A    between atoms: _36  and  _37
REMARK   18  A    between atoms: _36  and  _39
REMARK   19  A    between atoms: _39  and  _40
REMARK   20  A    between atoms: _40  and  _41
REMARK   21  A    between atoms: _44  and  _46
REMARK   22  A    between atoms: _46  and  _47
REMARK   23  A    between atoms: _49  and  _51
REMARK   24  A    between atoms: _51  and  _52
REMARK   25  A    between atoms: _55  and  _57
REMARK   26  A    between atoms: _57  and  _58
REMARK   27  A    between atoms: _60  and  _62
REMARK   28  A    between atoms: _62  and  _63
REMARK   29  A    between atoms: _62  and  _65
REMARK   30  A    between atoms: _65  and  _66
REMARK   31  A    between atoms: _66  and  _67
REMARK   32  A    between atoms: _67  and  _68
REMARK   33  A    between atoms: _68  and  _69
REMARK   34  A    between atoms: _73  and  _75
REMARK   35  A    between atoms: _75  and  _76
REMARK   36  A    between atoms: _75  and  _78
REMARK   37  A    between atoms: _78  and  _79
REMARK   38  A    between atoms: _82  and  _84
REMARK   39  A    between atoms: _84  and  _85
REMARK   40  A    between atoms: _84  and  _87
REMARK   41  A    between atoms: _87  and  _88
REMARK   42  A    between atoms: _91  and  _93
REMARK   43  A    between atoms: _93  and  _94
REMARK   44  A    between atoms: _97  and  _99
REMARK   45  A    between atoms: _99  and  _100
REMARK   46  A    between atoms: _99  and  _102
REMARK   47  A    between atoms: _102  and  _103
REMARK   48  A    between atoms: _103  and  _104
REMARK   49  A    between atoms: _104  and  _105
REMARK   50  A    between atoms: _114  and  _116
REMARK   51  A    between atoms: _116  and  _117
REMARK   52  A    between atoms: _116  and  _119
REMARK   53  A    between atoms: _119  and  _120
REMARK   54  A    between atoms: _125  and  _127
REMARK   55  A    between atoms: _127  and  _128
REMARK   56  A    between atoms: _127  and  _130
REMARK   57  A    between atoms: _130  and  _131
REMARK   58  A    between atoms: _131  and  _132
REMARK   59  A    between atoms: _132  and  _133
REMARK   60  A    between atoms: _142  and  _144
REMARK   61  A    between atoms: _144  and  _145
REMARK   62  A    between atoms: _144  and  _147
REMARK   63  A    between atoms: _147  and  _148
REMARK   64  A    between atoms: _148  and  _149
REMARK   65  A    between atoms: _153  and  _154
REMARK   66  A    between atoms: _159  and  _161
REMARK   67  A    between atoms: _161  and  _162
REMARK   68  A    between atoms: _164  and  _166
REMARK   69  A    between atoms: _166  and  _167
REMARK   70  A    between atoms: _166  and  _169
REMARK   71  A    between atoms: _169  and  _170
REMARK   72  A    between atoms: _170  and  _171
REMARK   73  A    between atoms: _171  and  _172
REMARK   74  A    between atoms: _181  and  _183
REMARK   75  A    between atoms: _183  and  _184
REMARK   76  A    between atoms: _183  and  _186
REMARK   77  A    between atoms: _186  and  _187
REMARK   78  A    between atoms: _190  and  _192
REMARK   79  A    between atoms: _192  and  _193
REMARK   80  A    between atoms: _192  and  _195
REMARK   81  A    between atoms: _195  and  _196
REMARK   82  A    between atoms: _199  and  _201
REMARK   83  A    between atoms: _201  and  _202
REMARK   84  A    between atoms: _201  and  _204
REMARK   85  A    between atoms: _204  and  _205
REMARK   86  A    between atoms: _205  and  _206
REMARK   87  A    between atoms: _209  and  _211
REMARK   88  A    between atoms: _211  and  _212
REMARK   89  A    between atoms: _211  and  _214
REMARK   90  A    between atoms: _217  and  _219
REMARK   91  A    between atoms: _219  and  _220
REMARK   92  A    between atoms: _219  and  _222
REMARK   93  A    between atoms: _222  and  _223
REMARK   94  A    between atoms: _223  and  _224
REMARK   95  A    between atoms: _226  and  _228
REMARK   96  A    between atoms: _228  and  _229
REMARK   97  A    between atoms: _228  and  _231
REMARK   98  A    between atoms: _231  and  _232
REMARK   99  A    between atoms: _238  and  _240
REMARK  100  A    between atoms: _240  and  _241
REMARK  101  A    between atoms: _240  and  _243
REMARK  102  A    between atoms: _243  and  _244
REMARK  103  A    between atoms: _249  and  _250
REMARK  104  A    between atoms: _252  and  _254
REMARK  105  A    between atoms: _254  and  _255
REMARK  106  A    between atoms: _258  and  _260
REMARK  107  A    between atoms: _260  and  _261
REMARK  108  A    between atoms: _260  and  _263
REMARK  109  A    between atoms: _263  and  _264
REMARK  110  A    between atoms: _264  and  _265
REMARK  111  A    between atoms: _265  and  _266
REMARK  112  A    between atoms: _275  and  _277
REMARK  113  A    between atoms: _277  and  _278
REMARK  114  A    between atoms: _277  and  _280
REMARK  115  A    between atoms: _280  and  _281
REMARK  116  A    between atoms: _284  and  _286
REMARK  117  A    between atoms: _286  and  _287
REMARK  118  A    between atoms: _286  and  _289
REMARK  119  A    between atoms: _289  and  _290
REMARK  120  A    between atoms: _290  and  _291
REMARK  121  A    between atoms: _291  and  _292
REMARK  122  A    between atoms: _301  and  _303
REMARK  123  A    between atoms: _303  and  _304
REMARK  124  A    between atoms: _303  and  _306
REMARK  125  A    between atoms: _306  and  _307
REMARK  126  A    between atoms: _312  and  _314
REMARK  127  A    between atoms: _314  and  _315
REMARK  128  A    between atoms: _314  and  _317
REMARK  129  A    between atoms: _317  and  _318
REMARK  130  A    between atoms: _321  and  _323
REMARK  131  A    between atoms: _323  and  _324
REMARK  132  A    between atoms: _323  and  _326
REMARK  133  A    between atoms: _326  and  _327
REMARK  134  A    between atoms: _330  and  _332
REMARK  135  A    between atoms: _332  and  _333
REMARK  136  A    between atoms: _332  and  _335
REMARK  137  A    between atoms: _335  and  _336
REMARK  138  A    between atoms: _338  and  _340
REMARK  139  A    between atoms: _340  and  _341
REMARK  140  A    between atoms: _340  and  _343
REMARK  141  A    between atoms: _343  and  _344
REMARK  142  A    between atoms: _347  and  _349
REMARK  143  A    between atoms: _349  and  _350
REMARK  144  A    between atoms: _349  and  _352
REMARK  145  A    between atoms: _352  and  _353
REMARK  146  A    between atoms: _353  and  _354
REMARK  147  A    between atoms: _359  and  _361
REMARK  148  A    between atoms: _361  and  _362
REMARK  149  A    between atoms: _365  and  _367
REMARK  150  A    between atoms: _367  and  _368
REMARK  151  A    between atoms: _367  and  _370
REMARK  152  A    between atoms: _370  and  _371
REMARK  153  A    between atoms: _376  and  _377
REMARK  154  A    between atoms: _379  and  _381
REMARK  155  A    between atoms: _381  and  _382
REMARK  156  A    between atoms: _381  and  _384
REMARK  157  A    between atoms: _384  and  _385
REMARK  158  A    between atoms: _385  and  _386
REMARK  159  A    between atoms: _391  and  _393
REMARK  160  A    between atoms: _393  and  _394
REMARK  161  A    between atoms: _396  and  _398
REMARK  162  A    between atoms: _398  and  _399
REMARK  163  A    between atoms: _401  and  _403
REMARK  164  A    between atoms: _403  and  _404
REMARK  165  A    between atoms: _403  and  _406
REMARK  166  A    between atoms: _406  and  _407
REMARK  167  A    between atoms: _407  and  _408
REMARK  168  A    between atoms: _408  and  _409
REMARK  169  A    between atoms: _418  and  _420
REMARK  170  A    between atoms: _420  and  _421
REMARK  171  A    between atoms: _420  and  _423
REMARK  172  A    between atoms: _423  and  _424
REMARK  173  A    between atoms: _427  and  _429
REMARK  174  A    between atoms: _429  and  _430
REMARK  175  A    between atoms: _429  and  _432
REMARK  176  A    between atoms: _435  and  _437
REMARK  177  A    between atoms: _437  and  _438
REMARK  178  A    between atoms: _437  and  _440
REMARK  179  A    between atoms: _443  and  _445
REMARK  180  A    between atoms: _445  and  _446
REMARK  181  A    between atoms: _448  and  _450
REMARK  182  A    between atoms: _450  and  _451
REMARK  183  A    between atoms: _450  and  _453
REMARK  184  A    between atoms: _453  and  _454
REMARK  185  A    between atoms: _454  and  _455
REMARK  186  A    between atoms: _455  and  _456
REMARK  187  A    between atoms: _456  and  _457
REMARK  188  A    between atoms: _461  and  _463
REMARK  189  A    between atoms: _463  and  _464
REMARK  190  A    between atoms: _463  and  _466
REMARK  191  A    between atoms: _466  and  _467
REMARK  192  A    between atoms: _467  and  _468
REMARK  193  A    between atoms: _468  and  _469
REMARK  194  A    between atoms: _478  and  _480
REMARK  195  A    between atoms: _480  and  _481
REMARK  196  A    between atoms: _484  and  _486
REMARK  197  A    between atoms: _486  and  _487
REMARK  198  A    between atoms: _486  and  _489
REMARK  199  A    between atoms: _489  and  _490
REMARK  200  A    between atoms: _490  and  _491
REMARK  201  A    between atoms: _491  and  _492
REMARK  202  A    between atoms: _501  and  _503
REMARK  203  A    between atoms: _503  and  _504
REMARK  204  A    between atoms: _507  and  _509
REMARK  205  A    between atoms: _509  and  _510
REMARK  206  A    between atoms: _509  and  _512
REMARK  207  A    between atoms: _512  and  _513
REMARK  208  A    between atoms: _513  and  _514
REMARK  209  A    between atoms: _514  and  _515
REMARK  210  A    between atoms: _524  and  _526
REMARK  211  A    between atoms: _526  and  _527
REMARK  212  A    between atoms: _529  and  _531
REMARK  213  A    between atoms: _531  and  _532
REMARK  214  A    between atoms: _531  and  _534
REMARK  215  A    between atoms: _534  and  _535
REMARK  216  A    between atoms: _535  and  _536
REMARK  217  A    between atoms: _539  and  _541
REMARK  218  A    between atoms: _541  and  _542
REMARK  219  A    between atoms: _541  and  _544
REMARK  220  A    between atoms: _544  and  _545
REMARK  221  A    between atoms: _548  and  _550
REMARK  222  A    between atoms: _550  and  _551
REMARK  223  A    between atoms: _550  and  _553
REMARK  224  A    between atoms: _553  and  _554
REMARK  225  A    between atoms: _557  and  _559
REMARK  226  A    between atoms: _559  and  _560
REMARK  227  A    between atoms: _559  and  _562
REMARK  228  A    between atoms: _562  and  _563
REMARK  229  A    between atoms: _563  and  _564
REMARK  230  A    between atoms: _564  and  _565
REMARK  231  A    between atoms: _574  and  _576
REMARK  232  A    between atoms: _576  and  _577
REMARK  233  A    between atoms: _576  and  _579
REMARK  234  A    between atoms: _579  and  _580
REMARK  235  A    between atoms: _583  and  _585
REMARK  236  A    between atoms: _585  and  _586
REMARK  237  A    between atoms: _585  and  _588
REMARK  238  A    between atoms: _588  and  _589
REMARK  239  A    between atoms: _589  and  _590
REMARK  240  A    between atoms: _593  and  _595
REMARK  241  A    between atoms: _595  and  _596
REMARK  242  A    between atoms: _595  and  _598
REMARK  243  A    between atoms: _598  and  _599
REMARK  244  A    between atoms: _599  and  _600
REMARK  245  A    between atoms: _605  and  _607
REMARK  246  A    between atoms: _607  and  _608
REMARK  247  A    between atoms: _607  and  _610
REMARK  248  A    between atoms: _610  and  _611
REMARK  249  A    between atoms: _611  and  _612
REMARK  250  A    between atoms: _615  and  _617
REMARK  251  A    between atoms: _617  and  _618
REMARK  252  A    between atoms: _617  and  _620
REMARK  253  A    between atoms: _620  and  _621
REMARK  254  A    between atoms: _627  and  _629
REMARK  255  A    between atoms: _629  and  _630
REMARK  256  A    between atoms: _629  and  _632
REMARK  257  A    between atoms: _632  and  _633
REMARK  258  A    between atoms: _639  and  _641
REMARK  259  A    between atoms: _641  and  _642
REMARK  260  A    between atoms: _641  and  _644
REMARK  261  A    between atoms: _644  and  _645
REMARK  262  A    between atoms: _648  and  _650
REMARK  263  A    between atoms: _650  and  _651
REMARK  264  A    between atoms: _650  and  _653
REMARK  265  A    between atoms: _653  and  _654
REMARK  266  A    between atoms: _659  and  _660
REMARK  267  A    between atoms: _662  and  _664
REMARK  268  A    between atoms: _664  and  _665
REMARK  269  A    between atoms: _668  and  _670
REMARK  270  A    between atoms: _670  and  _671
REMARK  271  A    between atoms: _670  and  _673
REMARK  272  A    between atoms: _673  and  _674
REMARK  273  A    between atoms: _674  and  _675
REMARK  274  A    between atoms: _681  and  _682
REMARK  275  A    between atoms: _687  and  _689
REMARK  276  A    between atoms: _689  and  _690
REMARK  277  A    between atoms: _689  and  _692
REMARK  278  A    between atoms: _692  and  _693
REMARK  279  A    between atoms: _696  and  _698
REMARK  280  A    between atoms: _698  and  _699
REMARK  281  A    between atoms: _698  and  _701
REMARK  282  A    between atoms: _701  and  _702
REMARK  283  A    between atoms: _702  and  _703
REMARK  284  A    between atoms: _706  and  _708
REMARK  285  A    between atoms: _708  and  _709
REMARK  286  A    between atoms: _708  and  _711
REMARK                            x       y       z     vdW  Elec       q    Type
REMARK                         _______ _______ _______ _____ _____    ______ ____
ROOT
ATOM      1  O   HOH     1      15.413 110.144  15.950  0.00  0.00    +0.000 OA
ENDROOT
TORSDOF 0
REMARK  Name = ../refined-set-2016/4tmk/4tmk_pocket.pdb
REMARK  286 active torsions:
REMARK  status: ('A' for Active; 'I' for Inactive)
REMARK    1  A    between atoms: _1  and  _3
REMARK    2  A    between atoms: _3  and  _4
REMARK    3  A    between atoms: _3  and  _6
REMARK    4  A    between atoms: _6  and  _7
REMARK    5  A    between atoms: _10  and  _12
REMARK    6  A    between atoms: _12  and  _13
REMARK    7  A    between atoms: _12  and  _15
REMARK    8  A    between atoms: _15  and  _16
REMARK    9  A    between atoms: _16  and  _17
REMARK   10  A    between atoms: _20  and  _22
REMARK   11  A    between atoms: _22  and  _23
REMARK   12  A    between atoms: _25  and  _27
REMARK   13  A    between atoms: _27  and  _28
REMARK   14  A    between atoms: _27  and  _30
REMARK   15  A    between atoms: _30  and  _31
REMARK   16  A    between atoms: _34  and  _36
REMARK   17  A    between atoms: _36  and  _37
REMARK   18  A    between atoms: _36  and  _39
REMARK   19  A    between atoms: _39  and  _40
REMARK   20  A    between atoms: _40  and  _41
REMARK   21  A    between atoms: _44  and  _46
REMARK   22  A    between atoms: _46  and  _47
REMARK   23  A    between atoms: _49  and  _51
REMARK   24  A    between atoms: _51  and  _52
REMARK   25  A    between atoms: _55  and  _57
REMARK   26  A    between atoms: _57  and  _58
REMARK   27  A    between atoms: _60  and  _62
REMARK   28  A    between atoms: _62  and  _63
REMARK   29  A    between atoms: _62  and  _65
REMARK   30  A    between atoms: _65  and  _66
REMARK   31  A    between atoms: _66  and  _67
REMARK   32  A    between atoms: _67  and  _68
REMARK   33  A    between atoms: _68  and  _69
REMARK   34  A    between atoms: _73  and  _75
REMARK   35  A    between atoms: _75  and  _76
REMARK   36  A    between atoms: _75  and  _78
REMARK   37  A    between atoms: _78  and  _79
REMARK   38  A    between atoms: _82  and  _84
REMARK   39  A    between atoms: _84  and  _85
REMARK   40  A    between atoms: _84  and  _87
REMARK   41  A    between atoms: _87  and  _88
REMARK   42  A    between atoms: _91  and  _93
REMARK   43  A    between atoms: _93  and  _94
REMARK   44  A    between atoms: _97  and  _99
REMARK   45  A    between atoms: _99  and  _100
REMARK   46  A    between atoms: _99  and  _102
REMARK   47  A    between atoms: _102  and  _103
REMARK   48  A    between atoms: _103  and  _104
REMARK   49  A    between atoms: _104  and  _105
REMARK   50  A    between atoms: _114  and  _116
REMARK   51  A    between atoms: _116  and  _117
REMARK   52  A    between atoms: _116  and  _119
REMARK   53  A    between atoms: _119  and  _120
REMARK   54  A    between atoms: _125  and  _127
REMARK   55  A    between atoms: _127  and  _128
REMARK   56  A    between atoms: _127  and  _130
REMARK   57  A    between atoms: _130  and  _131
REMARK   58  A    between atoms: _131  and  _132
REMARK   59  A    between atoms: _132  and  _133
REMARK   60  A    between atoms: _142  and  _144
REMARK   61  A    between atoms: _144  and  _145
REMARK   62  A    between atoms: _144  and  _147
REMARK   63  A    between atoms: _147  and  _148
REMARK   64  A    between atoms: _148  and  _149
REMARK   65  A    between atoms: _153  and  _154
REMARK   66  A    between atoms: _159  and  _161
REMARK   67  A    between atoms: _161  and  _162
REMARK   68  A    between atoms: _164  and  _166
REMARK   69  A    between atoms: _166  and  _167
REMARK   70  A    between atoms: _166  and  _169
REMARK   71  A    between atoms: _169  and  _170
REMARK   72  A    between atoms: _170  and  _171
REMARK   73  A    between atoms: _171  and  _172
REMARK   74  A    between atoms: _181  and  _183
REMARK   75  A    between atoms: _183  and  _184
REMARK   76  A    between atoms: _183  and  _186
REMARK   77  A    between atoms: _186  and  _187
REMARK   78  A    between atoms: _190  and  _192
REMARK   79  A    between atoms: _192  and  _193
REMARK   80  A    between atoms: _192  and  _195
REMARK   81  A    between atoms: _195  and  _196
REMARK   82  A    between atoms: _199  and  _201
REMARK   83  A    between atoms: _201  and  _202
REMARK   84  A    between atoms: _201  and  _204
REMARK   85  A    between atoms: _204  and  _205
REMARK   86  A    between atoms: _205  and  _206
REMARK   87  A    between atoms: _209  and  _211
REMARK   88  A    between atoms: _211  and  _212
REMARK   89  A    between atoms: _211  and  _214
REMARK   90  A    between atoms: _217  and  _219
REMARK   91  A    between atoms: _219  and  _220
REMARK   92  A    between atoms: _219  and  _222
REMARK   93  A    between atoms: _222  and  _223
REMARK   94  A    between atoms: _223  and  _224
REMARK   95  A    between atoms: _226  and  _228
REMARK   96  A    between atoms: _228  and  _229
REMARK   97  A    between atoms: _228  and  _231
REMARK   98  A    between atoms: _231  and  _232
REMARK   99  A    between atoms: _238  and  _240
REMARK  100  A    between atoms: _240  and  _241
REMARK  101  A    between atoms: _240  and  _243
REMARK  102  A    between atoms: _243  and  _244
REMARK  103  A    between atoms: _249  and  _250
REMARK  104  A    between atoms: _252  and  _254
REMARK  105  A    between atoms: _254  and  _255
REMARK  106  A    between atoms: _258  and  _260
REMARK  107  A    between atoms: _260  and  _261
REMARK  108  A    between atoms: _260  and  _263
REMARK  109  A    between atoms: _263  and  _264
REMARK  110  A    between atoms: _264  and  _265
REMARK  111  A    between atoms: _265  and  _266
REMARK  112  A    between atoms: _275  and  _277
REMARK  113  A    between atoms: _277  and  _278
REMARK  114  A    between atoms: _277  and  _280
REMARK  115  A    between atoms: _280  and  _281
REMARK  116  A    between atoms: _284  and  _286
REMARK  117  A    between atoms: _286  and  _287
REMARK  118  A    between atoms: _286  and  _289
REMARK  119  A    between atoms: _289  and  _290
REMARK  120  A    between atoms: _290  and  _291
REMARK  121  A    between atoms: _291  and  _292
REMARK  122  A    between atoms: _301  and  _303
REMARK  123  A    between atoms: _303  and  _304
REMARK  124  A    between atoms: _303  and  _306
REMARK  125  A    between atoms: _306  and  _307
REMARK  126  A    between atoms: _312  and  _314
REMARK  127  A    between atoms: _314  and  _315
REMARK  128  A    between atoms: _314  and  _317
REMARK  129  A    between atoms: _317  and  _318
REMARK  130  A    between atoms: _321  and  _323
REMARK  131  A    between atoms: _323  and  _324
REMARK  132  A    between atoms: _323  and  _326
REMARK  133  A    between atoms: _326  and  _327
REMARK  134  A    between atoms: _330  and  _332
REMARK  135  A    between atoms: _332  and  _333
REMARK  136  A    between atoms: _332  and  _335
REMARK  137  A    between atoms: _335  and  _336
REMARK  138  A    between atoms: _338  and  _340
REMARK  139  A    between atoms: _340  and  _341
REMARK  140  A    between atoms: _340  and  _343
REMARK  141  A    between atoms: _343  and  _344
REMARK  142  A    between atoms: _347  and  _349
REMARK  143  A    between atoms: _349  and  _350
REMARK  144  A    between atoms: _349  and  _352
REMARK  145  A    between atoms: _352  and  _353
REMARK  146  A    between atoms: _353  and  _354
REMARK  147  A    between atoms: _359  and  _361
REMARK  148  A    between atoms: _361  and  _362
REMARK  149  A    between atoms: _365  and  _367
REMARK  150  A    between atoms: _367  and  _368
REMARK  151  A    between atoms: _367  and  _370
REMARK  152  A    between atoms: _370  and  _371
REMARK  153  A    between atoms: _376  and  _377
REMARK  154  A    between atoms: _379  and  _381
REMARK  155  A    between atoms: _381  and  _382
REMARK  156  A    between atoms: _381  and  _384
REMARK  157  A    between atoms: _384  and  _385
REMARK  158  A    between atoms: _385  and  _386
REMARK  159  A    between atoms: _391  and  _393
REMARK  160  A    between atoms: _393  and  _394
REMARK  161  A    between atoms: _396  and  _398
REMARK  162  A    between atoms: _398  and  _399
REMARK  163  A    between atoms: _401  and  _403
REMARK  164  A    between atoms: _403  and  _404
REMARK  165  A    between atoms: _403  and  _406
REMARK  166  A    between atoms: _406  and  _407
REMARK  167  A    between atoms: _407  and  _408
REMARK  168  A    between atoms: _408  and  _409
REMARK  169  A    between atoms: _418  and  _420
REMARK  170  A    between atoms: _420  and  _421
REMARK  171  A    between atoms: _420  and  _423
REMARK  172  A    between atoms: _423  and  _424
REMARK  173  A    between atoms: _427  and  _429
REMARK  174  A    between atoms: _429  and  _430
REMARK  175  A    between atoms: _429  and  _432
REMARK  176  A    between atoms: _435  and  _437
REMARK  177  A    between atoms: _437  and  _438
REMARK  178  A    between atoms: _437  and  _440
REMARK  179  A    between atoms: _443  and  _445
REMARK  180  A    between atoms: _445  and  _446
REMARK  181  A    between atoms: _448  and  _450
REMARK  182  A    between atoms: _450  and  _451
REMARK  183  A    between atoms: _450  and  _453
REMARK  184  A    between atoms: _453  and  _454
REMARK  185  A    between atoms: _454  and  _455
REMARK  186  A    between atoms: _455  and  _456
REMARK  187  A    between atoms: _456  and  _457
REMARK  188  A    between atoms: _461  and  _463
REMARK  189  A    between atoms: _463  and  _464
REMARK  190  A    between atoms: _463  and  _466
REMARK  191  A    between atoms: _466  and  _467
REMARK  192  A    between atoms: _467  and  _468
REMARK  193  A    between atoms: _468  and  _469
REMARK  194  A    between atoms: _478  and  _480
REMARK  195  A    between atoms: _480  and  _481
REMARK  196  A    between atoms: _484  and  _486
REMARK  197  A    between atoms: _486  and  _487
REMARK  198  A    between atoms: _486  and  _489
REMARK  199  A    between atoms: _489  and  _490
REMARK  200  A    between atoms: _490  and  _491
REMARK  201  A    between atoms: _491  and  _492
REMARK  202  A    between atoms: _501  and  _503
REMARK  203  A    between atoms: _503  and  _504
REMARK  204  A    between atoms: _507  and  _509
REMARK  205  A    between atoms: _509  and  _510
REMARK  206  A    between atoms: _509  and  _512
REMARK  207  A    between atoms: _512  and  _513
REMARK  208  A    between atoms: _513  and  _514
REMARK  209  A    between atoms: _514  and  _515
REMARK  210  A    between atoms: _524  and  _526
REMARK  211  A    between atoms: _526  and  _527
REMARK  212  A    between atoms: _529  and  _531
REMARK  213  A    between atoms: _531  and  _532
REMARK  214  A    between atoms: _531  and  _534
REMARK  215  A    between atoms: _534  and  _535
REMARK  216  A    between atoms: _535  and  _536
REMARK  217  A    between atoms: _539  and  _541
REMARK  218  A    between atoms: _541  and  _542
REMARK  219  A    between atoms: _541  and  _544
REMARK  220  A    between atoms: _544  and  _545
REMARK  221  A    between atoms: _548  and  _550
REMARK  222  A    between atoms: _550  and  _551
REMARK  223  A    between atoms: _550  and  _553
REMARK  224  A    between atoms: _553  and  _554
REMARK  225  A    between atoms: _557  and  _559
REMARK  226  A    between atoms: _559  and  _560
REMARK  227  A    between atoms: _559  and  _562
REMARK  228  A    between atoms: _562  and  _563
REMARK  229  A    between atoms: _563  and  _564
REMARK  230  A    between atoms: _564  and  _565
REMARK  231  A    between atoms: _574  and  _576
REMARK  232  A    between atoms: _576  and  _577
REMARK  233  A    between atoms: _576  and  _579
REMARK  234  A    between atoms: _579  and  _580
REMARK  235  A    between atoms: _583  and  _585
REMARK  236  A    between atoms: _585  and  _586
REMARK  237  A    between atoms: _585  and  _588
REMARK  238  A    between atoms: _588  and  _589
REMARK  239  A    between atoms: _589  and  _590
REMARK  240  A    between atoms: _593  and  _595
REMARK  241  A    between atoms: _595  and  _596
REMARK  242  A    between atoms: _595  and  _598
REMARK  243  A    between atoms: _598  and  _599
REMARK  244  A    between atoms: _599  and  _600
REMARK  245  A    between atoms: _605  and  _607
REMARK  246  A    between atoms: _607  and  _608
REMARK  247  A    between atoms: _607  and  _610
REMARK  248  A    between atoms: _610  and  _611
REMARK  249  A    between atoms: _611  and  _612
REMARK  250  A    between atoms: _615  and  _617
REMARK  251  A    between atoms: _617  and  _618
REMARK  252  A    between atoms: _617  and  _620
REMARK  253  A    between atoms: _620  and  _621
REMARK  254  A    between atoms: _627  and  _629
REMARK  255  A    between atoms: _629  and  _630
REMARK  256  A    between atoms: _629  and  _632
REMARK  257  A    between atoms: _632  and  _633
REMARK  258  A    between atoms: _639  and  _641
REMARK  259  A    between atoms: _641  and  _642
REMARK  260  A    between atoms: _641  and  _644
REMARK  261  A    between atoms: _644  and  _645
REMARK  262  A    between atoms: _648  and  _650
REMARK  263  A    between atoms: _650  and  _651
REMARK  264  A    between atoms: _650  and  _653
REMARK  265  A    between atoms: _653  and  _654
REMARK  266  A    between atoms: _659  and  _660
REMARK  267  A    between atoms: _662  and  _664
REMARK  268  A    between atoms: _664  and  _665
REMARK  269  A    between atoms: _668  and  _670
REMARK  270  A    between atoms: _670  and  _671
REMARK  271  A    between atoms: _670  and  _673
REMARK  272  A    between atoms: _673  and  _674
REMARK  273  A    between atoms: _674  and  _675
REMARK  274  A    between atoms: _681  and  _682
REMARK  275  A    between atoms: _687  and  _689
REMARK  276  A    between atoms: _689  and  _690
REMARK  277  A    between atoms: _689  and  _692
REMARK  278  A    between atoms: _692  and  _693
REMARK  279  A    between atoms: _696  and  _698
REMARK  280  A    between atoms: _698  and  _699
REMARK  281  A    between atoms: _698  and  _701
REMARK  282  A    between atoms: _701  and  _702
REMARK  283  A    between atoms: _702  and  _703
REMARK  284  A    between atoms: _706  and  _708
REMARK  285  A    between atoms: _708  and  _709
REMARK  286  A    between atoms: _708  and  _711
REMARK                            x       y       z     vdW  Elec       q    Type
REMARK                         _______ _______ _______ _____ _____    ______ ____
ROOT
ATOM      1  O   HOH     1      18.093 108.447  13.946  0.00  0.00    +0.000 OA
ENDROOT
TORSDOF 0
REMARK  Name = ../refined-set-2016/4tmk/4tmk_pocket.pdb
REMARK  286 active torsions:
REMARK  status: ('A' for Active; 'I' for Inactive)
REMARK    1  A    between atoms: _1  and  _3
REMARK    2  A    between atoms: _3  and  _4
REMARK    3  A    between atoms: _3  and  _6
REMARK    4  A    between atoms: _6  and  _7
REMARK    5  A    between atoms: _10  and  _12
REMARK    6  A    between atoms: _12  and  _13
REMARK    7  A    between atoms: _12  and  _15
REMARK    8  A    between atoms: _15  and  _16
REMARK    9  A    between atoms: _16  and  _17
REMARK   10  A    between atoms: _20  and  _22
REMARK   11  A    between atoms: _22  and  _23
REMARK   12  A    between atoms: _25  and  _27
REMARK   13  A    between atoms: _27  and  _28
REMARK   14  A    between atoms: _27  and  _30
REMARK   15  A    between atoms: _30  and  _31
REMARK   16  A    between atoms: _34  and  _36
REMARK   17  A    between atoms: _36  and  _37
REMARK   18  A    between atoms: _36  and  _39
REMARK   19  A    between atoms: _39  and  _40
REMARK   20  A    between atoms: _40  and  _41
REMARK   21  A    between atoms: _44  and  _46
REMARK   22  A    between atoms: _46  and  _47
REMARK   23  A    between atoms: _49  and  _51
REMARK   24  A    between atoms: _51  and  _52
REMARK   25  A    between atoms: _55  and  _57
REMARK   26  A    between atoms: _57  and  _58
REMARK   27  A    between atoms: _60  and  _62
REMARK   28  A    between atoms: _62  and  _63
REMARK   29  A    between atoms: _62  and  _65
REMARK   30  A    between atoms: _65  and  _66
REMARK   31  A    between atoms: _66  and  _67
REMARK   32  A    between atoms: _67  and  _68
REMARK   33  A    between atoms: _68  and  _69
REMARK   34  A    between atoms: _73  and  _75
REMARK   35  A    between atoms: _75  and  _76
REMARK   36  A    between atoms: _75  and  _78
REMARK   37  A    between atoms: _78  and  _79
REMARK   38  A    between atoms: _82  and  _84
REMARK   39  A    between atoms: _84  and  _85
REMARK   40  A    between atoms: _84  and  _87
REMARK   41  A    between atoms: _87  and  _88
REMARK   42  A    between atoms: _91  and  _93
REMARK   43  A    between atoms: _93  and  _94
REMARK   44  A    between atoms: _97  and  _99
REMARK   45  A    between atoms: _99  and  _100
REMARK   46  A    between atoms: _99  and  _102
REMARK   47  A    between atoms: _102  and  _103
REMARK   48  A    between atoms: _103  and  _104
REMARK   49  A    between atoms: _104  and  _105
REMARK   50  A    between atoms: _114  and  _116
REMARK   51  A    between atoms: _116  and  _117
REMARK   52  A    between atoms: _116  and  _119
REMARK   53  A    between atoms: _119  and  _120
REMARK   54  A    between atoms: _125  and  _127
REMARK   55  A    between atoms: _127  and  _128
REMARK   56  A    between atoms: _127  and  _130
REMARK   57  A    between atoms: _130  and  _131
REMARK   58  A    between atoms: _131  and  _132
REMARK   59  A    between atoms: _132  and  _133
REMARK   60  A    between atoms: _142  and  _144
REMARK   61  A    between atoms: _144  and  _145
REMARK   62  A    between atoms: _144  and  _147
REMARK   63  A    between atoms: _147  and  _148
REMARK   64  A    between atoms: _148  and  _149
REMARK   65  A    between atoms: _153  and  _154
REMARK   66  A    between atoms: _159  and  _161
REMARK   67  A    between atoms: _161  and  _162
REMARK   68  A    between atoms: _164  and  _166
REMARK   69  A    between atoms: _166  and  _167
REMARK   70  A    between atoms: _166  and  _169
REMARK   71  A    between atoms: _169  and  _170
REMARK   72  A    between atoms: _170  and  _171
REMARK   73  A    between atoms: _171  and  _172
REMARK   74  A    between atoms: _181  and  _183
REMARK   75  A    between atoms: _183  and  _184
REMARK   76  A    between atoms: _183  and  _186
REMARK   77  A    between atoms: _186  and  _187
REMARK   78  A    between atoms: _190  and  _192
REMARK   79  A    between atoms: _192  and  _193
REMARK   80  A    between atoms: _192  and  _195
REMARK   81  A    between atoms: _195  and  _196
REMARK   82  A    between atoms: _199  and  _201
REMARK   83  A    between atoms: _201  and  _202
REMARK   84  A    between atoms: _201  and  _204
REMARK   85  A    between atoms: _204  and  _205
REMARK   86  A    between atoms: _205  and  _206
REMARK   87  A    between atoms: _209  and  _211
REMARK   88  A    between atoms: _211  and  _212
REMARK   89  A    between atoms: _211  and  _214
REMARK   90  A    between atoms: _217  and  _219
REMARK   91  A    between atoms: _219  and  _220
REMARK   92  A    between atoms: _219  and  _222
REMARK   93  A    between atoms: _222  and  _223
REMARK   94  A    between atoms: _223  and  _224
REMARK   95  A    between atoms: _226  and  _228
REMARK   96  A    between atoms: _228  and  _229
REMARK   97  A    between atoms: _228  and  _231
REMARK   98  A    between atoms: _231  and  _232
REMARK   99  A    between atoms: _238  and  _240
REMARK  100  A    between atoms: _240  and  _241
REMARK  101  A    between atoms: _240  and  _243
REMARK  102  A    between atoms: _243  and  _244
REMARK  103  A    between atoms: _249  and  _250
REMARK  104  A    between atoms: _252  and  _254
REMARK  105  A    between atoms: _254  and  _255
REMARK  106  A    between atoms: _258  and  _260
REMARK  107  A    between atoms: _260  and  _261
REMARK  108  A    between atoms: _260  and  _263
REMARK  109  A    between atoms: _263  and  _264
REMARK  110  A    between atoms: _264  and  _265
REMARK  111  A    between atoms: _265  and  _266
REMARK  112  A    between atoms: _275  and  _277
REMARK  113  A    between atoms: _277  and  _278
REMARK  114  A    between atoms: _277  and  _280
REMARK  115  A    between atoms: _280  and  _281
REMARK  116  A    between atoms: _284  and  _286
REMARK  117  A    between atoms: _286  and  _287
REMARK  118  A    between atoms: _286  and  _289
REMARK  119  A    between atoms: _289  and  _290
REMARK  120  A    between atoms: _290  and  _291
REMARK  121  A    between atoms: _291  and  _292
REMARK  122  A    between atoms: _301  and  _303
REMARK  123  A    between atoms: _303  and  _304
REMARK  124  A    between atoms: _303  and  _306
REMARK  125  A    between atoms: _306  and  _307
REMARK  126  A    between atoms: _312  and  _314
REMARK  127  A    between atoms: _314  and  _315
REMARK  128  A    between atoms: _314  and  _317
REMARK  129  A    between atoms: _317  and  _318
REMARK  130  A    between atoms: _321  and  _323
REMARK  131  A    between atoms: _323  and  _324
REMARK  132  A    between atoms: _323  and  _326
REMARK  133  A    between atoms: _326  and  _327
REMARK  134  A    between atoms: _330  and  _332
REMARK  135  A    between atoms: _332  and  _333
REMARK  136  A    between atoms: _332  and  _335
REMARK  137  A    between atoms: _335  and  _336
REMARK  138  A    between atoms: _338  and  _340
REMARK  139  A    between atoms: _340  and  _341
REMARK  140  A    between atoms: _340  and  _343
REMARK  141  A    between atoms: _343  and  _344
REMARK  142  A    between atoms: _347  and  _349
REMARK  143  A    between atoms: _349  and  _350
REMARK  144  A    between atoms: _349  and  _352
REMARK  145  A    between atoms: _352  and  _353
REMARK  146  A    between atoms: _353  and  _354
REMARK  147  A    between atoms: _359  and  _361
REMARK  148  A    between atoms: _361  and  _362
REMARK  149  A    between atoms: _365  and  _367
REMARK  150  A    between atoms: _367  and  _368
REMARK  151  A    between atoms: _367  and  _370
REMARK  152  A    between atoms: _370  and  _371
REMARK  153  A    between atoms: _376  and  _377
REMARK  154  A    between atoms: _379  and  _381
REMARK  155  A    between atoms: _381  and  _382
REMARK  156  A    between atoms: _381  and  _384
REMARK  157  A    between atoms: _384  and  _385
REMARK  158  A    between atoms: _385  and  _386
REMARK  159  A    between atoms: _391  and  _393
REMARK  160  A    between atoms: _393  and  _394
REMARK  161  A    between atoms: _396  and  _398
REMARK  162  A    between atoms: _398  and  _399
REMARK  163  A    between atoms: _401  and  _403
REMARK  164  A    between atoms: _403  and  _404
REMARK  165  A    between atoms: _403  and  _406
REMARK  166  A    between atoms: _406  and  _407
REMARK  167  A    between atoms: _407  and  _408
REMARK  168  A    between atoms: _408  and  _409
REMARK  169  A    between atoms: _418  and  _420
REMARK  170  A    between atoms: _420  and  _421
REMARK  171  A    between atoms: _420  and  _423
REMARK  172  A    between atoms: _423  and  _424
REMARK  173  A    between atoms: _427  and  _429
REMARK  174  A    between atoms: _429  and  _430
REMARK  175  A    between atoms: _429  and  _432
REMARK  176  A    between atoms: _435  and  _437
REMARK  177  A    between atoms: _437  and  _438
REMARK  178  A    between atoms: _437  and  _440
REMARK  179  A    between atoms: _443  and  _445
REMARK  180  A    between atoms: _445  and  _446
REMARK  181  A    between atoms: _448  and  _450
REMARK  182  A    between atoms: _450  and  _451
REMARK  183  A    between atoms: _450  and  _453
REMARK  184  A    between atoms: _453  and  _454
REMARK  185  A    between atoms: _454  and  _455
REMARK  186  A    between atoms: _455  and  _456
REMARK  187  A    between atoms: _456  and  _457
REMARK  188  A    between atoms: _461  and  _463
REMARK  189  A    between atoms: _463  and  _464
REMARK  190  A    between atoms: _463  and  _466
REMARK  191  A    between atoms: _466  and  _467
REMARK  192  A    between atoms: _467  and  _468
REMARK  193  A    between atoms: _468  and  _469
REMARK  194  A    between atoms: _478  and  _480
REMARK  195  A    between atoms: _480  and  _481
REMARK  196  A    between atoms: _484  and  _486
REMARK  197  A    between atoms: _486  and  _487
REMARK  198  A    between atoms: _486  and  _489
REMARK  199  A    between atoms: _489  and  _490
REMARK  200  A    between atoms: _490  and  _491
REMARK  201  A    between atoms: _491  and  _492
REMARK  202  A    between atoms: _501  and  _503
REMARK  203  A    between atoms: _503  and  _504
REMARK  204  A    between atoms: _507  and  _509
REMARK  205  A    between atoms: _509  and  _510
REMARK  206  A    between atoms: _509  and  _512
REMARK  207  A    between atoms: _512  and  _513
REMARK  208  A    between atoms: _513  and  _514
REMARK  209  A    between atoms: _514  and  _515
REMARK  210  A    between atoms: _524  and  _526
REMARK  211  A    between atoms: _526  and  _527
REMARK  212  A    between atoms: _529  and  _531
REMARK  213  A    between atoms: _531  and  _532
REMARK  214  A    between atoms: _531  and  _534
REMARK  215  A    between atoms: _534  and  _535
REMARK  216  A    between atoms: _535  and  _536
REMARK  217  A    between atoms: _539  and  _541
REMARK  218  A    between atoms: _541  and  _542
REMARK  219  A    between atoms: _541  and  _544
REMARK  220  A    between atoms: _544  and  _545
REMARK  221  A    between atoms: _548  and  _550
REMARK  222  A    between atoms: _550  and  _551
REMARK  223  A    between atoms: _550  and  _553
REMARK  224  A    between atoms: _553  and  _554
REMARK  225  A    between atoms: _557  and  _559
REMARK  226  A    between atoms: _559  and  _560
REMARK  227  A    between atoms: _559  and  _562
REMARK  228  A    between atoms: _562  and  _563
REMARK  229  A    between atoms: _563  and  _564
REMARK  230  A    between atoms: _564  and  _565
REMARK  231  A    between atoms: _574  and  _576
REMARK  232  A    between atoms: _576  and  _577
REMARK  233  A    between atoms: _576  and  _579
REMARK  234  A    between atoms: _579  and  _580
REMARK  235  A    between atoms: _583  and  _585
REMARK  236  A    between atoms: _585  and  _586
REMARK  237  A    between atoms: _585  and  _588
REMARK  238  A    between atoms: _588  and  _589
REMARK  239  A    between atoms: _589  and  _590
REMARK  240  A    between atoms: _593  and  _595
REMARK  241  A    between atoms: _595  and  _596
REMARK  242  A    between atoms: _595  and  _598
REMARK  243  A    between atoms: _598  and  _599
REMARK  244  A    between atoms: _599  and  _600
REMARK  245  A    between atoms: _605  and  _607
REMARK  246  A    between atoms: _607  and  _608
REMARK  247  A    between atoms: _607  and  _610
REMARK  248  A    between atoms: _610  and  _611
REMARK  249  A    between atoms: _611  and  _612
REMARK  250  A    between atoms: _615  and  _617
REMARK  251  A    between atoms: _617  and  _618
REMARK  252  A    between atoms: _617  and  _620
REMARK  253  A    between atoms: _620  and  _621
REMARK  254  A    between atoms: _627  and  _629
REMARK  255  A    between atoms: _629  and  _630
REMARK  256  A    between atoms: _629  and  _632
REMARK  257  A    between atoms: _632  and  _633
REMARK  258  A    between atoms: _639  and  _641
REMARK  259  A    between atoms: _641  and  _642
REMARK  260  A    between atoms: _641  and  _644
REMARK  261  A    between atoms: _644  and  _645
REMARK  262  A    between atoms: _648  and  _650
REMARK  263  A    between atoms: _650  and  _651
REMARK  264  A    between atoms: _650  and  _653
REMARK  265  A    between atoms: _653  and  _654
REMARK  266  A    between atoms: _659  and  _660
REMARK  267  A    between atoms: _662  and  _664
REMARK  268  A    between atoms: _664  and  _665
REMARK  269  A    between atoms: _668  and  _670
REMARK  270  A    between atoms: _670  and  _671
REMARK  271  A    between atoms: _670  and  _673
REMARK  272  A    between atoms: _673  and  _674
REMARK  273  A    between atoms: _674  and  _675
REMARK  274  A    between atoms: _681  and  _682
REMARK  275  A    between atoms: _687  and  _689
REMARK  276  A    between atoms: _689  and  _690
REMARK  277  A    between atoms: _689  and  _692
REMARK  278  A    between atoms: _692  and  _693
REMARK  279  A    between atoms: _696  and  _698
REMARK  280  A    between atoms: _698  and  _699
REMARK  281  A    between atoms: _698  and  _701
REMARK  282  A    between atoms: _701  and  _702
REMARK  283  A    between atoms: _702  and  _703
REMARK  284  A    between atoms: _706  and  _708
REMARK  285  A    between atoms: _708  and  _709
REMARK  286  A    between atoms: _708  and  _711
REMARK                            x       y       z     vdW  Elec       q    Type
REMARK                         _______ _______ _______ _____ _____    ______ ____
ROOT
ATOM      1  O   HOH     1      20.096 107.024   6.846  0.00  0.00    +0.000 OA
ENDROOT
TORSDOF 0
REMARK  Name = ../refined-set-2016/4tmk/4tmk_pocket.pdb
REMARK  286 active torsions:
REMARK  status: ('A' for Active; 'I' for Inactive)
REMARK    1  A    between atoms: _1  and  _3
REMARK    2  A    between atoms: _3  and  _4
REMARK    3  A    between atoms: _3  and  _6
REMARK    4  A    between atoms: _6  and  _7
REMARK    5  A    between atoms: _10  and  _12
REMARK    6  A    between atoms: _12  and  _13
REMARK    7  A    between atoms: _12  and  _15
REMARK    8  A    between atoms: _15  and  _16
REMARK    9  A    between atoms: _16  and  _17
REMARK   10  A    between atoms: _20  and  _22
REMARK   11  A    between atoms: _22  and  _23
REMARK   12  A    between atoms: _25  and  _27
REMARK   13  A    between atoms: _27  and  _28
REMARK   14  A    between atoms: _27  and  _30
REMARK   15  A    between atoms: _30  and  _31
REMARK   16  A    between atoms: _34  and  _36
REMARK   17  A    between atoms: _36  and  _37
REMARK   18  A    between atoms: _36  and  _39
REMARK   19  A    between atoms: _39  and  _40
REMARK   20  A    between atoms: _40  and  _41
REMARK   21  A    between atoms: _44  and  _46
REMARK   22  A    between atoms: _46  and  _47
REMARK   23  A    between atoms: _49  and  _51
REMARK   24  A    between atoms: _51  and  _52
REMARK   25  A    between atoms: _55  and  _57
REMARK   26  A    between atoms: _57  and  _58
REMARK   27  A    between atoms: _60  and  _62
REMARK   28  A    between atoms: _62  and  _63
REMARK   29  A    between atoms: _62  and  _65
REMARK   30  A    between atoms: _65  and  _66
REMARK   31  A    between atoms: _66  and  _67
REMARK   32  A    between atoms: _67  and  _68
REMARK   33  A    between atoms: _68  and  _69
REMARK   34  A    between atoms: _73  and  _75
REMARK   35  A    between atoms: _75  and  _76
REMARK   36  A    between atoms: _75  and  _78
REMARK   37  A    between atoms: _78  and  _79
REMARK   38  A    between atoms: _82  and  _84
REMARK   39  A    between atoms: _84  and  _85
REMARK   40  A    between atoms: _84  and  _87
REMARK   41  A    between atoms: _87  and  _88
REMARK   42  A    between atoms: _91  and  _93
REMARK   43  A    between atoms: _93  and  _94
REMARK   44  A    between atoms: _97  and  _99
REMARK   45  A    between atoms: _99  and  _100
REMARK   46  A    between atoms: _99  and  _102
REMARK   47  A    between atoms: _102  and  _103
REMARK   48  A    between atoms: _103  and  _104
REMARK   49  A    between atoms: _104  and  _105
REMARK   50  A    between atoms: _114  and  _116
REMARK   51  A    between atoms: _116  and  _117
REMARK   52  A    between atoms: _116  and  _119
REMARK   53  A    between atoms: _119  and  _120
REMARK   54  A    between atoms: _125  and  _127
REMARK   55  A    between atoms: _127  and  _128
REMARK   56  A    between atoms: _127  and  _130
REMARK   57  A    between atoms: _130  and  _131
REMARK   58  A    between atoms: _131  and  _132
REMARK   59  A    between atoms: _132  and  _133
REMARK   60  A    between atoms: _142  and  _144
REMARK   61  A    between atoms: _144  and  _145
REMARK   62  A    between atoms: _144  and  _147
REMARK   63  A    between atoms: _147  and  _148
REMARK   64  A    between atoms: _148  and  _149
REMARK   65  A    between atoms: _153  and  _154
REMARK   66  A    between atoms: _159  and  _161
REMARK   67  A    between atoms: _161  and  _162
REMARK   68  A    between atoms: _164  and  _166
REMARK   69  A    between atoms: _166  and  _167
REMARK   70  A    between atoms: _166  and  _169
REMARK   71  A    between atoms: _169  and  _170
REMARK   72  A    between atoms: _170  and  _171
REMARK   73  A    between atoms: _171  and  _172
REMARK   74  A    between atoms: _181  and  _183
REMARK   75  A    between atoms: _183  and  _184
REMARK   76  A    between atoms: _183  and  _186
REMARK   77  A    between atoms: _186  and  _187
REMARK   78  A    between atoms: _190  and  _192
REMARK   79  A    between atoms: _192  and  _193
REMARK   80  A    between atoms: _192  and  _195
REMARK   81  A    between atoms: _195  and  _196
REMARK   82  A    between atoms: _199  and  _201
REMARK   83  A    between atoms: _201  and  _202
REMARK   84  A    between atoms: _201  and  _204
REMARK   85  A    between atoms: _204  and  _205
REMARK   86  A    between atoms: _205  and  _206
REMARK   87  A    between atoms: _209  and  _211
REMARK   88  A    between atoms: _211  and  _212
REMARK   89  A    between atoms: _211  and  _214
REMARK   90  A    between atoms: _217  and  _219
REMARK   91  A    between atoms: _219  and  _220
REMARK   92  A    between atoms: _219  and  _222
REMARK   93  A    between atoms: _222  and  _223
REMARK   94  A    between atoms: _223  and  _224
REMARK   95  A    between atoms: _226  and  _228
REMARK   96  A    between atoms: _228  and  _229
REMARK   97  A    between atoms: _228  and  _231
REMARK   98  A    between atoms: _231  and  _232
REMARK   99  A    between atoms: _238  and  _240
REMARK  100  A    between atoms: _240  and  _241
REMARK  101  A    between atoms: _240  and  _243
REMARK  102  A    between atoms: _243  and  _244
REMARK  103  A    between atoms: _249  and  _250
REMARK  104  A    between atoms: _252  and  _254
REMARK  105  A    between atoms: _254  and  _255
REMARK  106  A    between atoms: _258  and  _260
REMARK  107  A    between atoms: _260  and  _261
REMARK  108  A    between atoms: _260  and  _263
REMARK  109  A    between atoms: _263  and  _264
REMARK  110  A    between atoms: _264  and  _265
REMARK  111  A    between atoms: _265  and  _266
REMARK  112  A    between atoms: _275  and  _277
REMARK  113  A    between atoms: _277  and  _278
REMARK  114  A    between atoms: _277  and  _280
REMARK  115  A    between atoms: _280  and  _281
REMARK  116  A    between atoms: _284  and  _286
REMARK  117  A    between atoms: _286  and  _287
REMARK  118  A    between atoms: _286  and  _289
REMARK  119  A    between atoms: _289  and  _290
REMARK  120  A    between atoms: _290  and  _291
REMARK  121  A    between atoms: _291  and  _292
REMARK  122  A    between atoms: _301  and  _303
REMARK  123  A    between atoms: _303  and  _304
REMARK  124  A    between atoms: _303  and  _306
REMARK  125  A    between atoms: _306  and  _307
REMARK  126  A    between atoms: _312  and  _314
REMARK  127  A    between atoms: _314  and  _315
REMARK  128  A    between atoms: _314  and  _317
REMARK  129  A    between atoms: _317  and  _318
REMARK  130  A    between atoms: _321  and  _323
REMARK  131  A    between atoms: _323  and  _324
REMARK  132  A    between atoms: _323  and  _326
REMARK  133  A    between atoms: _326  and  _327
REMARK  134  A    between atoms: _330  and  _332
REMARK  135  A    between atoms: _332  and  _333
REMARK  136  A    between atoms: _332  and  _335
REMARK  137  A    between atoms: _335  and  _336
REMARK  138  A    between atoms: _338  and  _340
REMARK  139  A    between atoms: _340  and  _341
REMARK  140  A    between atoms: _340  and  _343
REMARK  141  A    between atoms: _343  and  _344
REMARK  142  A    between atoms: _347  and  _349
REMARK  143  A    between atoms: _349  and  _350
REMARK  144  A    between atoms: _349  and  _352
REMARK  145  A    between atoms: _352  and  _353
REMARK  146  A    between atoms: _353  and  _354
REMARK  147  A    between atoms: _359  and  _361
REMARK  148  A    between atoms: _361  and  _362
REMARK  149  A    between atoms: _365  and  _367
REMARK  150  A    between atoms: _367  and  _368
REMARK  151  A    between atoms: _367  and  _370
REMARK  152  A    between atoms: _370  and  _371
REMARK  153  A    between atoms: _376  and  _377
REMARK  154  A    between atoms: _379  and  _381
REMARK  155  A    between atoms: _381  and  _382
REMARK  156  A    between atoms: _381  and  _384
REMARK  157  A    between atoms: _384  and  _385
REMARK  158  A    between atoms: _385  and  _386
REMARK  159  A    between atoms: _391  and  _393
REMARK  160  A    between atoms: _393  and  _394
REMARK  161  A    between atoms: _396  and  _398
REMARK  162  A    between atoms: _398  and  _399
REMARK  163  A    between atoms: _401  and  _403
REMARK  164  A    between atoms: _403  and  _404
REMARK  165  A    between atoms: _403  and  _406
REMARK  166  A    between atoms: _406  and  _407
REMARK  167  A    between atoms: _407  and  _408
REMARK  168  A    between atoms: _408  and  _409
REMARK  169  A    between atoms: _418  and  _420
REMARK  170  A    between atoms: _420  and  _421
REMARK  171  A    between atoms: _420  and  _423
REMARK  172  A    between atoms: _423  and  _424
REMARK  173  A    between atoms: _427  and  _429
REMARK  174  A    between atoms: _429  and  _430
REMARK  175  A    between atoms: _429  and  _432
REMARK  176  A    between atoms: _435  and  _437
REMARK  177  A    between atoms: _437  and  _438
REMARK  178  A    between atoms: _437  and  _440
REMARK  179  A    between atoms: _443  and  _445
REMARK  180  A    between atoms: _445  and  _446
REMARK  181  A    between atoms: _448  and  _450
REMARK  182  A    between atoms: _450  and  _451
REMARK  183  A    between atoms: _450  and  _453
REMARK  184  A    between atoms: _453  and  _454
REMARK  185  A    between atoms: _454  and  _455
REMARK  186  A    between atoms: _455  and  _456
REMARK  187  A    between atoms: _456  and  _457
REMARK  188  A    between atoms: _461  and  _463
REMARK  189  A    between atoms: _463  and  _464
REMARK  190  A    between atoms: _463  and  _466
REMARK  191  A    between atoms: _466  and  _467
REMARK  192  A    between atoms: _467  and  _468
REMARK  193  A    between atoms: _468  and  _469
REMARK  194  A    between atoms: _478  and  _480
REMARK  195  A    between atoms: _480  and  _481
REMARK  196  A    between atoms: _484  and  _486
REMARK  197  A    between atoms: _486  and  _487
REMARK  198  A    between atoms: _486  and  _489
REMARK  199  A    between atoms: _489  and  _490
REMARK  200  A    between atoms: _490  and  _491
REMARK  201  A    between atoms: _491  and  _492
REMARK  202  A    between atoms: _501  and  _503
REMARK  203  A    between atoms: _503  and  _504
REMARK  204  A    between atoms: _507  and  _509
REMARK  205  A    between atoms: _509  and  _510
REMARK  206  A    between atoms: _509  and  _512
REMARK  207  A    between atoms: _512  and  _513
REMARK  208  A    between atoms: _513  and  _514
REMARK  209  A    between atoms: _514  and  _515
REMARK  210  A    between atoms: _524  and  _526
REMARK  211  A    between atoms: _526  and  _527
REMARK  212  A    between atoms: _529  and  _531
REMARK  213  A    between atoms: _531  and  _532
REMARK  214  A    between atoms: _531  and  _534
REMARK  215  A    between atoms: _534  and  _535
REMARK  216  A    between atoms: _535  and  _536
REMARK  217  A    between atoms: _539  and  _541
REMARK  218  A    between atoms: _541  and  _542
REMARK  219  A    between atoms: _541  and  _544
REMARK  220  A    between atoms: _544  and  _545
REMARK  221  A    between atoms: _548  and  _550
REMARK  222  A    between atoms: _550  and  _551
REMARK  223  A    between atoms: _550  and  _553
REMARK  224  A    between atoms: _553  and  _554
REMARK  225  A    between atoms: _557  and  _559
REMARK  226  A    between atoms: _559  and  _560
REMARK  227  A    between atoms: _559  and  _562
REMARK  228  A    between atoms: _562  and  _563
REMARK  229  A    between atoms: _563  and  _564
REMARK  230  A    between atoms: _564  and  _565
REMARK  231  A    between atoms: _574  and  _576
REMARK  232  A    between atoms: _576  and  _577
REMARK  233  A    between atoms: _576  and  _579
REMARK  234  A    between atoms: _579  and  _580
REMARK  235  A    between atoms: _583  and  _585
REMARK  236  A    between atoms: _585  and  _586
REMARK  237  A    between atoms: _585  and  _588
REMARK  238  A    between atoms: _588  and  _589
REMARK  239  A    between atoms: _589  and  _590
REMARK  240  A    between atoms: _593  and  _595
REMARK  241  A    between atoms: _595  and  _596
REMARK  242  A    between atoms: _595  and  _598
REMARK  243  A    between atoms: _598  and  _599
REMARK  244  A    between atoms: _599  and  _600
REMARK  245  A    between atoms: _605  and  _607
REMARK  246  A    between atoms: _607  and  _608
REMARK  247  A    between atoms: _607  and  _610
REMARK  248  A    between atoms: _610  and  _611
REMARK  249  A    between atoms: _611  and  _612
REMARK  250  A    between atoms: _615  and  _617
REMARK  251  A    between atoms: _617  and  _618
REMARK  252  A    between atoms: _617  and  _620
REMARK  253  A    between atoms: _620  and  _621
REMARK  254  A    between atoms: _627  and  _629
REMARK  255  A    between atoms: _629  and  _630
REMARK  256  A    between atoms: _629  and  _632
REMARK  257  A    between atoms: _632  and  _633
REMARK  258  A    between atoms: _639  and  _641
REMARK  259  A    between atoms: _641  and  _642
REMARK  260  A    between atoms: _641  and  _644
REMARK  261  A    between atoms: _644  and  _645
REMARK  262  A    between atoms: _648  and  _650
REMARK  263  A    between atoms: _650  and  _651
REMARK  264  A    between atoms: _650  and  _653
REMARK  265  A    between atoms: _653  and  _654
REMARK  266  A    between atoms: _659  and  _660
REMARK  267  A    between atoms: _662  and  _664
REMARK  268  A    between atoms: _664  and  _665
REMARK  269  A    between atoms: _668  and  _670
REMARK  270  A    between atoms: _670  and  _671
REMARK  271  A    between atoms: _670  and  _673
REMARK  272  A    between atoms: _673  and  _674
REMARK  273  A    between atoms: _674  and  _675
REMARK  274  A    between atoms: _681  and  _682
REMARK  275  A    between atoms: _687  and  _689
REMARK  276  A    between atoms: _689  and  _690
REMARK  277  A    between atoms: _689  and  _692
REMARK  278  A    between atoms: _692  and  _693
REMARK  279  A    between atoms: _696  and  _698
REMARK  280  A    between atoms: _698  and  _699
REMARK  281  A    between atoms: _698  and  _701
REMARK  282  A    between atoms: _701  and  _702
REMARK  283  A    between atoms: _702  and  _703
REMARK  284  A    between atoms: _706  and  _708
REMARK  285  A    between atoms: _708  and  _709
REMARK  286  A    between atoms: _708  and  _711
REMARK                            x       y       z     vdW  Elec       q    Type
REMARK                         _______ _______ _______ _____ _____    ______ ____
ROOT
ATOM      1  O   HOH     1      20.147 105.777  13.432  0.00  0.00    +0.000 OA
ENDROOT
TORSDOF 0
REMARK  Name = ../refined-set-2016/4tmk/4tmk_pocket.pdb
REMARK  286 active torsions:
REMARK  status: ('A' for Active; 'I' for Inactive)
REMARK    1  A    between atoms: _1  and  _3
REMARK    2  A    between atoms: _3  and  _4
REMARK    3  A    between atoms: _3  and  _6
REMARK    4  A    between atoms: _6  and  _7
REMARK    5  A    between atoms: _10  and  _12
REMARK    6  A    between atoms: _12  and  _13
REMARK    7  A    between atoms: _12  and  _15
REMARK    8  A    between atoms: _15  and  _16
REMARK    9  A    between atoms: _16  and  _17
REMARK   10  A    between atoms: _20  and  _22
REMARK   11  A    between atoms: _22  and  _23
REMARK   12  A    between atoms: _25  and  _27
REMARK   13  A    between atoms: _27  and  _28
REMARK   14  A    between atoms: _27  and  _30
REMARK   15  A    between atoms: _30  and  _31
REMARK   16  A    between atoms: _34  and  _36
REMARK   17  A    between atoms: _36  and  _37
REMARK   18  A    between atoms: _36  and  _39
REMARK   19  A    between atoms: _39  and  _40
REMARK   20  A    between atoms: _40  and  _41
REMARK   21  A    between atoms: _44  and  _46
REMARK   22  A    between atoms: _46  and  _47
REMARK   23  A    between atoms: _49  and  _51
REMARK   24  A    between atoms: _51  and  _52
REMARK   25  A    between atoms: _55  and  _57
REMARK   26  A    between atoms: _57  and  _58
REMARK   27  A    between atoms: _60  and  _62
REMARK   28  A    between atoms: _62  and  _63
REMARK   29  A    between atoms: _62  and  _65
REMARK   30  A    between atoms: _65  and  _66
REMARK   31  A    between atoms: _66  and  _67
REMARK   32  A    between atoms: _67  and  _68
REMARK   33  A    between atoms: _68  and  _69
REMARK   34  A    between atoms: _73  and  _75
REMARK   35  A    between atoms: _75  and  _76
REMARK   36  A    between atoms: _75  and  _78
REMARK   37  A    between atoms: _78  and  _79
REMARK   38  A    between atoms: _82  and  _84
REMARK   39  A    between atoms: _84  and  _85
REMARK   40  A    between atoms: _84  and  _87
REMARK   41  A    between atoms: _87  and  _88
REMARK   42  A    between atoms: _91  and  _93
REMARK   43  A    between atoms: _93  and  _94
REMARK   44  A    between atoms: _97  and  _99
REMARK   45  A    between atoms: _99  and  _100
REMARK   46  A    between atoms: _99  and  _102
REMARK   47  A    between atoms: _102  and  _103
REMARK   48  A    between atoms: _103  and  _104
REMARK   49  A    between atoms: _104  and  _105
REMARK   50  A    between atoms: _114  and  _116
REMARK   51  A    between atoms: _116  and  _117
REMARK   52  A    between atoms: _116  and  _119
REMARK   53  A    between atoms: _119  and  _120
REMARK   54  A    between atoms: _125  and  _127
REMARK   55  A    between atoms: _127  and  _128
REMARK   56  A    between atoms: _127  and  _130
REMARK   57  A    between atoms: _130  and  _131
REMARK   58  A    between atoms: _131  and  _132
REMARK   59  A    between atoms: _132  and  _133
REMARK   60  A    between atoms: _142  and  _144
REMARK   61  A    between atoms: _144  and  _145
REMARK   62  A    between atoms: _144  and  _147
REMARK   63  A    between atoms: _147  and  _148
REMARK   64  A    between atoms: _148  and  _149
REMARK   65  A    between atoms: _153  and  _154
REMARK   66  A    between atoms: _159  and  _161
REMARK   67  A    between atoms: _161  and  _162
REMARK   68  A    between atoms: _164  and  _166
REMARK   69  A    between atoms: _166  and  _167
REMARK   70  A    between atoms: _166  and  _169
REMARK   71  A    between atoms: _169  and  _170
REMARK   72  A    between atoms: _170  and  _171
REMARK   73  A    between atoms: _171  and  _172
REMARK   74  A    between atoms: _181  and  _183
REMARK   75  A    between atoms: _183  and  _184
REMARK   76  A    between atoms: _183  and  _186
REMARK   77  A    between atoms: _186  and  _187
REMARK   78  A    between atoms: _190  and  _192
REMARK   79  A    between atoms: _192  and  _193
REMARK   80  A    between atoms: _192  and  _195
REMARK   81  A    between atoms: _195  and  _196
REMARK   82  A    between atoms: _199  and  _201
REMARK   83  A    between atoms: _201  and  _202
REMARK   84  A    between atoms: _201  and  _204
REMARK   85  A    between atoms: _204  and  _205
REMARK   86  A    between atoms: _205  and  _206
REMARK   87  A    between atoms: _209  and  _211
REMARK   88  A    between atoms: _211  and  _212
REMARK   89  A    between atoms: _211  and  _214
REMARK   90  A    between atoms: _217  and  _219
REMARK   91  A    between atoms: _219  and  _220
REMARK   92  A    between atoms: _219  and  _222
REMARK   93  A    between atoms: _222  and  _223
REMARK   94  A    between atoms: _223  and  _224
REMARK   95  A    between atoms: _226  and  _228
REMARK   96  A    between atoms: _228  and  _229
REMARK   97  A    between atoms: _228  and  _231
REMARK   98  A    between atoms: _231  and  _232
REMARK   99  A    between atoms: _238  and  _240
REMARK  100  A    between atoms: _240  and  _241
REMARK  101  A    between atoms: _240  and  _243
REMARK  102  A    between atoms: _243  and  _244
REMARK  103  A    between atoms: _249  and  _250
REMARK  104  A    between atoms: _252  and  _254
REMARK  105  A    between atoms: _254  and  _255
REMARK  106  A    between atoms: _258  and  _260
REMARK  107  A    between atoms: _260  and  _261
REMARK  108  A    between atoms: _260  and  _263
REMARK  109  A    between atoms: _263  and  _264
REMARK  110  A    between atoms: _264  and  _265
REMARK  111  A    between atoms: _265  and  _266
REMARK  112  A    between atoms: _275  and  _277
REMARK  113  A    between atoms: _277  and  _278
REMARK  114  A    between atoms: _277  and  _280
REMARK  115  A    between atoms: _280  and  _281
REMARK  116  A    between atoms: _284  and  _286
REMARK  117  A    between atoms: _286  and  _287
REMARK  118  A    between atoms: _286  and  _289
REMARK  119  A    between atoms: _289  and  _290
REMARK  120  A    between atoms: _290  and  _291
REMARK  121  A    between atoms: _291  and  _292
REMARK  122  A    between atoms: _301  and  _303
REMARK  123  A    between atoms: _303  and  _304
REMARK  124  A    between atoms: _303  and  _306
REMARK  125  A    between atoms: _306  and  _307
REMARK  126  A    between atoms: _312  and  _314
REMARK  127  A    between atoms: _314  and  _315
REMARK  128  A    between atoms: _314  and  _317
REMARK  129  A    between atoms: _317  and  _318
REMARK  130  A    between atoms: _321  and  _323
REMARK  131  A    between atoms: _323  and  _324
REMARK  132  A    between atoms: _323  and  _326
REMARK  133  A    between atoms: _326  and  _327
REMARK  134  A    between atoms: _330  and  _332
REMARK  135  A    between atoms: _332  and  _333
REMARK  136  A    between atoms: _332  and  _335
REMARK  137  A    between atoms: _335  and  _336
REMARK  138  A    between atoms: _338  and  _340
REMARK  139  A    between atoms: _340  and  _341
REMARK  140  A    between atoms: _340  and  _343
REMARK  141  A    between atoms: _343  and  _344
REMARK  142  A    between atoms: _347  and  _349
REMARK  143  A    between atoms: _349  and  _350
REMARK  144  A    between atoms: _349  and  _352
REMARK  145  A    between atoms: _352  and  _353
REMARK  146  A    between atoms: _353  and  _354
REMARK  147  A    between atoms: _359  and  _361
REMARK  148  A    between atoms: _361  and  _362
REMARK  149  A    between atoms: _365  and  _367
REMARK  150  A    between atoms: _367  and  _368
REMARK  151  A    between atoms: _367  and  _370
REMARK  152  A    between atoms: _370  and  _371
REMARK  153  A    between atoms: _376  and  _377
REMARK  154  A    between atoms: _379  and  _381
REMARK  155  A    between atoms: _381  and  _382
REMARK  156  A    between atoms: _381  and  _384
REMARK  157  A    between atoms: _384  and  _385
REMARK  158  A    between atoms: _385  and  _386
REMARK  159  A    between atoms: _391  and  _393
REMARK  160  A    between atoms: _393  and  _394
REMARK  161  A    between atoms: _396  and  _398
REMARK  162  A    between atoms: _398  and  _399
REMARK  163  A    between atoms: _401  and  _403
REMARK  164  A    between atoms: _403  and  _404
REMARK  165  A    between atoms: _403  and  _406
REMARK  166  A    between atoms: _406  and  _407
REMARK  167  A    between atoms: _407  and  _408
REMARK  168  A    between atoms: _408  and  _409
REMARK  169  A    between atoms: _418  and  _420
REMARK  170  A    between atoms: _420  and  _421
REMARK  171  A    between atoms: _420  and  _423
REMARK  172  A    between atoms: _423  and  _424
REMARK  173  A    between atoms: _427  and  _429
REMARK  174  A    between atoms: _429  and  _430
REMARK  175  A    between atoms: _429  and  _432
REMARK  176  A    between atoms: _435  and  _437
REMARK  177  A    between atoms: _437  and  _438
REMARK  178  A    between atoms: _437  and  _440
REMARK  179  A    between atoms: _443  and  _445
REMARK  180  A    between atoms: _445  and  _446
REMARK  181  A    between atoms: _448  and  _450
REMARK  182  A    between atoms: _450  and  _451
REMARK  183  A    between atoms: _450  and  _453
REMARK  184  A    between atoms: _453  and  _454
REMARK  185  A    between atoms: _454  and  _455
REMARK  186  A    between atoms: _455  and  _456
REMARK  187  A    between atoms: _456  and  _457
REMARK  188  A    between atoms: _461  and  _463
REMARK  189  A    between atoms: _463  and  _464
REMARK  190  A    between atoms: _463  and  _466
REMARK  191  A    between atoms: _466  and  _467
REMARK  192  A    between atoms: _467  and  _468
REMARK  193  A    between atoms: _468  and  _469
REMARK  194  A    between atoms: _478  and  _480
REMARK  195  A    between atoms: _480  and  _481
REMARK  196  A    between atoms: _484  and  _486
REMARK  197  A    between atoms: _486  and  _487
REMARK  198  A    between atoms: _486  and  _489
REMARK  199  A    between atoms: _489  and  _490
REMARK  200  A    between atoms: _490  and  _491
REMARK  201  A    between atoms: _491  and  _492
REMARK  202  A    between atoms: _501  and  _503
REMARK  203  A    between atoms: _503  and  _504
REMARK  204  A    between atoms: _507  and  _509
REMARK  205  A    between atoms: _509  and  _510
REMARK  206  A    between atoms: _509  and  _512
REMARK  207  A    between atoms: _512  and  _513
REMARK  208  A    between atoms: _513  and  _514
REMARK  209  A    between atoms: _514  and  _515
REMARK  210  A    between atoms: _524  and  _526
REMARK  211  A    between atoms: _526  and  _527
REMARK  212  A    between atoms: _529  and  _531
REMARK  213  A    between atoms: _531  and  _532
REMARK  214  A    between atoms: _531  and  _534
REMARK  215  A    between atoms: _534  and  _535
REMARK  216  A    between atoms: _535  and  _536
REMARK  217  A    between atoms: _539  and  _541
REMARK  218  A    between atoms: _541  and  _542
REMARK  219  A    between atoms: _541  and  _544
REMARK  220  A    between atoms: _544  and  _545
REMARK  221  A    between atoms: _548  and  _550
REMARK  222  A    between atoms: _550  and  _551
REMARK  223  A    between atoms: _550  and  _553
REMARK  224  A    between atoms: _553  and  _554
REMARK  225  A    between atoms: _557  and  _559
REMARK  226  A    between atoms: _559  and  _560
REMARK  227  A    between atoms: _559  and  _562
REMARK  228  A    between atoms: _562  and  _563
REMARK  229  A    between atoms: _563  and  _564
REMARK  230  A    between atoms: _564  and  _565
REMARK  231  A    between atoms: _574  and  _576
REMARK  232  A    between atoms: _576  and  _577
REMARK  233  A    between atoms: _576  and  _579
REMARK  234  A    between atoms: _579  and  _580
REMARK  235  A    between atoms: _583  and  _585
REMARK  236  A    between atoms: _585  and  _586
REMARK  237  A    between atoms: _585  and  _588
REMARK  238  A    between atoms: _588  and  _589
REMARK  239  A    between atoms: _589  and  _590
REMARK  240  A    between atoms: _593  and  _595
REMARK  241  A    between atoms: _595  and  _596
REMARK  242  A    between atoms: _595  and  _598
REMARK  243  A    between atoms: _598  and  _599
REMARK  244  A    between atoms: _599  and  _600
REMARK  245  A    between atoms: _605  and  _607
REMARK  246  A    between atoms: _607  and  _608
REMARK  247  A    between atoms: _607  and  _610
REMARK  248  A    between atoms: _610  and  _611
REMARK  249  A    between atoms: _611  and  _612
REMARK  250  A    between atoms: _615  and  _617
REMARK  251  A    between atoms: _617  and  _618
REMARK  252  A    between atoms: _617  and  _620
REMARK  253  A    between atoms: _620  and  _621
REMARK  254  A    between atoms: _627  and  _629
REMARK  255  A    between atoms: _629  and  _630
REMARK  256  A    between atoms: _629  and  _632
REMARK  257  A    between atoms: _632  and  _633
REMARK  258  A    between atoms: _639  and  _641
REMARK  259  A    between atoms: _641  and  _642
REMARK  260  A    between atoms: _641  and  _644
REMARK  261  A    between atoms: _644  and  _645
REMARK  262  A    between atoms: _648  and  _650
REMARK  263  A    between atoms: _650  and  _651
REMARK  264  A    between atoms: _650  and  _653
REMARK  265  A    between atoms: _653  and  _654
REMARK  266  A    between atoms: _659  and  _660
REMARK  267  A    between atoms: _662  and  _664
REMARK  268  A    between atoms: _664  and  _665
REMARK  269  A    between atoms: _668  and  _670
REMARK  270  A    between atoms: _670  and  _671
REMARK  271  A    between atoms: _670  and  _673
REMARK  272  A    between atoms: _673  and  _674
REMARK  273  A    between atoms: _674  and  _675
REMARK  274  A    between atoms: _681  and  _682
REMARK  275  A    between atoms: _687  and  _689
REMARK  276  A    between atoms: _689  and  _690
REMARK  277  A    between atoms: _689  and  _692
REMARK  278  A    between atoms: _692  and  _693
REMARK  279  A    between atoms: _696  and  _698
REMARK  280  A    between atoms: _698  and  _699
REMARK  281  A    between atoms: _698  and  _701
REMARK  282  A    between atoms: _701  and  _702
REMARK  283  A    between atoms: _702  and  _703
REMARK  284  A    between atoms: _706  and  _708
REMARK  285  A    between atoms: _708  and  _709
REMARK  286  A    between atoms: _708  and  _711
REMARK                            x       y       z     vdW  Elec       q    Type
REMARK                         _______ _______ _______ _____ _____    ______ ____
ROOT
ATOM      1  O   HOH     1      21.572 104.685  11.964  0.00  0.00    +0.000 OA
ENDROOT
TORSDOF 0
REMARK  Name = ../refined-set-2016/4tmk/4tmk_pocket.pdb
REMARK  286 active torsions:
REMARK  status: ('A' for Active; 'I' for Inactive)
REMARK    1  A    between atoms: _1  and  _3
REMARK    2  A    between atoms: _3  and  _4
REMARK    3  A    between atoms: _3  and  _6
REMARK    4  A    between atoms: _6  and  _7
REMARK    5  A    between atoms: _10  and  _12
REMARK    6  A    between atoms: _12  and  _13
REMARK    7  A    between atoms: _12  and  _15
REMARK    8  A    between atoms: _15  and  _16
REMARK    9  A    between atoms: _16  and  _17
REMARK   10  A    between atoms: _20  and  _22
REMARK   11  A    between atoms: _22  and  _23
REMARK   12  A    between atoms: _25  and  _27
REMARK   13  A    between atoms: _27  and  _28
REMARK   14  A    between atoms: _27  and  _30
REMARK   15  A    between atoms: _30  and  _31
REMARK   16  A    between atoms: _34  and  _36
REMARK   17  A    between atoms: _36  and  _37
REMARK   18  A    between atoms: _36  and  _39
REMARK   19  A    between atoms: _39  and  _40
REMARK   20  A    between atoms: _40  and  _41
REMARK   21  A    between atoms: _44  and  _46
REMARK   22  A    between atoms: _46  and  _47
REMARK   23  A    between atoms: _49  and  _51
REMARK   24  A    between atoms: _51  and  _52
REMARK   25  A    between atoms: _55  and  _57
REMARK   26  A    between atoms: _57  and  _58
REMARK   27  A    between atoms: _60  and  _62
REMARK   28  A    between atoms: _62  and  _63
REMARK   29  A    between atoms: _62  and  _65
REMARK   30  A    between atoms: _65  and  _66
REMARK   31  A    between atoms: _66  and  _67
REMARK   32  A    between atoms: _67  and  _68
REMARK   33  A    between atoms: _68  and  _69
REMARK   34  A    between atoms: _73  and  _75
REMARK   35  A    between atoms: _75  and  _76
REMARK   36  A    between atoms: _75  and  _78
REMARK   37  A    between atoms: _78  and  _79
REMARK   38  A    between atoms: _82  and  _84
REMARK   39  A    between atoms: _84  and  _85
REMARK   40  A    between atoms: _84  and  _87
REMARK   41  A    between atoms: _87  and  _88
REMARK   42  A    between atoms: _91  and  _93
REMARK   43  A    between atoms: _93  and  _94
REMARK   44  A    between atoms: _97  and  _99
REMARK   45  A    between atoms: _99  and  _100
REMARK   46  A    between atoms: _99  and  _102
REMARK   47  A    between atoms: _102  and  _103
REMARK   48  A    between atoms: _103  and  _104
REMARK   49  A    between atoms: _104  and  _105
REMARK   50  A    between atoms: _114  and  _116
REMARK   51  A    between atoms: _116  and  _117
REMARK   52  A    between atoms: _116  and  _119
REMARK   53  A    between atoms: _119  and  _120
REMARK   54  A    between atoms: _125  and  _127
REMARK   55  A    between atoms: _127  and  _128
REMARK   56  A    between atoms: _127  and  _130
REMARK   57  A    between atoms: _130  and  _131
REMARK   58  A    between atoms: _131  and  _132
REMARK   59  A    between atoms: _132  and  _133
REMARK   60  A    between atoms: _142  and  _144
REMARK   61  A    between atoms: _144  and  _145
REMARK   62  A    between atoms: _144  and  _147
REMARK   63  A    between atoms: _147  and  _148
REMARK   64  A    between atoms: _148  and  _149
REMARK   65  A    between atoms: _153  and  _154
REMARK   66  A    between atoms: _159  and  _161
REMARK   67  A    between atoms: _161  and  _162
REMARK   68  A    between atoms: _164  and  _166
REMARK   69  A    between atoms: _166  and  _167
REMARK   70  A    between atoms: _166  and  _169
REMARK   71  A    between atoms: _169  and  _170
REMARK   72  A    between atoms: _170  and  _171
REMARK   73  A    between atoms: _171  and  _172
REMARK   74  A    between atoms: _181  and  _183
REMARK   75  A    between atoms: _183  and  _184
REMARK   76  A    between atoms: _183  and  _186
REMARK   77  A    between atoms: _186  and  _187
REMARK   78  A    between atoms: _190  and  _192
REMARK   79  A    between atoms: _192  and  _193
REMARK   80  A    between atoms: _192  and  _195
REMARK   81  A    between atoms: _195  and  _196
REMARK   82  A    between atoms: _199  and  _201
REMARK   83  A    between atoms: _201  and  _202
REMARK   84  A    between atoms: _201  and  _204
REMARK   85  A    between atoms: _204  and  _205
REMARK   86  A    between atoms: _205  and  _206
REMARK   87  A    between atoms: _209  and  _211
REMARK   88  A    between atoms: _211  and  _212
REMARK   89  A    between atoms: _211  and  _214
REMARK   90  A    between atoms: _217  and  _219
REMARK   91  A    between atoms: _219  and  _220
REMARK   92  A    between atoms: _219  and  _222
REMARK   93  A    between atoms: _222  and  _223
REMARK   94  A    between atoms: _223  and  _224
REMARK   95  A    between atoms: _226  and  _228
REMARK   96  A    between atoms: _228  and  _229
REMARK   97  A    between atoms: _228  and  _231
REMARK   98  A    between atoms: _231  and  _232
REMARK   99  A    between atoms: _238  and  _240
REMARK  100  A    between atoms: _240  and  _241
REMARK  101  A    between atoms: _240  and  _243
REMARK  102  A    between atoms: _243  and  _244
REMARK  103  A    between atoms: _249  and  _250
REMARK  104  A    between atoms: _252  and  _254
REMARK  105  A    between atoms: _254  and  _255
REMARK  106  A    between atoms: _258  and  _260
REMARK  107  A    between atoms: _260  and  _261
REMARK  108  A    between atoms: _260  and  _263
REMARK  109  A    between atoms: _263  and  _264
REMARK  110  A    between atoms: _264  and  _265
REMARK  111  A    between atoms: _265  and  _266
REMARK  112  A    between atoms: _275  and  _277
REMARK  113  A    between atoms: _277  and  _278
REMARK  114  A    between atoms: _277  and  _280
REMARK  115  A    between atoms: _280  and  _281
REMARK  116  A    between atoms: _284  and  _286
REMARK  117  A    between atoms: _286  and  _287
REMARK  118  A    between atoms: _286  and  _289
REMARK  119  A    between atoms: _289  and  _290
REMARK  120  A    between atoms: _290  and  _291
REMARK  121  A    between atoms: _291  and  _292
REMARK  122  A    between atoms: _301  and  _303
REMARK  123  A    between atoms: _303  and  _304
REMARK  124  A    between atoms: _303  and  _306
REMARK  125  A    between atoms: _306  and  _307
REMARK  126  A    between atoms: _312  and  _314
REMARK  127  A    between atoms: _314  and  _315
REMARK  128  A    between atoms: _314  and  _317
REMARK  129  A    between atoms: _317  and  _318
REMARK  130  A    between atoms: _321  and  _323
REMARK  131  A    between atoms: _323  and  _324
REMARK  132  A    between atoms: _323  and  _326
REMARK  133  A    between atoms: _326  and  _327
REMARK  134  A    between atoms: _330  and  _332
REMARK  135  A    between atoms: _332  and  _333
REMARK  136  A    between atoms: _332  and  _335
REMARK  137  A    between atoms: _335  and  _336
REMARK  138  A    between atoms: _338  and  _340
REMARK  139  A    between atoms: _340  and  _341
REMARK  140  A    between atoms: _340  and  _343
REMARK  141  A    between atoms: _343  and  _344
REMARK  142  A    between atoms: _347  and  _349
REMARK  143  A    between atoms: _349  and  _350
REMARK  144  A    between atoms: _349  and  _352
REMARK  145  A    between atoms: _352  and  _353
REMARK  146  A    between atoms: _353  and  _354
REMARK  147  A    between atoms: _359  and  _361
REMARK  148  A    between atoms: _361  and  _362
REMARK  149  A    between atoms: _365  and  _367
REMARK  150  A    between atoms: _367  and  _368
REMARK  151  A    between atoms: _367  and  _370
REMARK  152  A    between atoms: _370  and  _371
REMARK  153  A    between atoms: _376  and  _377
REMARK  154  A    between atoms: _379  and  _381
REMARK  155  A    between atoms: _381  and  _382
REMARK  156  A    between atoms: _381  and  _384
REMARK  157  A    between atoms: _384  and  _385
REMARK  158  A    between atoms: _385  and  _386
REMARK  159  A    between atoms: _391  and  _393
REMARK  160  A    between atoms: _393  and  _394
REMARK  161  A    between atoms: _396  and  _398
REMARK  162  A    between atoms: _398  and  _399
REMARK  163  A    between atoms: _401  and  _403
REMARK  164  A    between atoms: _403  and  _404
REMARK  165  A    between atoms: _403  and  _406
REMARK  166  A    between atoms: _406  and  _407
REMARK  167  A    between atoms: _407  and  _408
REMARK  168  A    between atoms: _408  and  _409
REMARK  169  A    between atoms: _418  and  _420
REMARK  170  A    between atoms: _420  and  _421
REMARK  171  A    between atoms: _420  and  _423
REMARK  172  A    between atoms: _423  and  _424
REMARK  173  A    between atoms: _427  and  _429
REMARK  174  A    between atoms: _429  and  _430
REMARK  175  A    between atoms: _429  and  _432
REMARK  176  A    between atoms: _435  and  _437
REMARK  177  A    between atoms: _437  and  _438
REMARK  178  A    between atoms: _437  and  _440
REMARK  179  A    between atoms: _443  and  _445
REMARK  180  A    between atoms: _445  and  _446
REMARK  181  A    between atoms: _448  and  _450
REMARK  182  A    between atoms: _450  and  _451
REMARK  183  A    between atoms: _450  and  _453
REMARK  184  A    between atoms: _453  and  _454
REMARK  185  A    between atoms: _454  and  _455
REMARK  186  A    between atoms: _455  and  _456
REMARK  187  A    between atoms: _456  and  _457
REMARK  188  A    between atoms: _461  and  _463
REMARK  189  A    between atoms: _463  and  _464
REMARK  190  A    between atoms: _463  and  _466
REMARK  191  A    between atoms: _466  and  _467
REMARK  192  A    between atoms: _467  and  _468
REMARK  193  A    between atoms: _468  and  _469
REMARK  194  A    between atoms: _478  and  _480
REMARK  195  A    between atoms: _480  and  _481
REMARK  196  A    between atoms: _484  and  _486
REMARK  197  A    between atoms: _486  and  _487
REMARK  198  A    between atoms: _486  and  _489
REMARK  199  A    between atoms: _489  and  _490
REMARK  200  A    between atoms: _490  and  _491
REMARK  201  A    between atoms: _491  and  _492
REMARK  202  A    between atoms: _501  and  _503
REMARK  203  A    between atoms: _503  and  _504
REMARK  204  A    between atoms: _507  and  _509
REMARK  205  A    between atoms: _509  and  _510
REMARK  206  A    between atoms: _509  and  _512
REMARK  207  A    between atoms: _512  and  _513
REMARK  208  A    between atoms: _513  and  _514
REMARK  209  A    between atoms: _514  and  _515
REMARK  210  A    between atoms: _524  and  _526
REMARK  211  A    between atoms: _526  and  _527
REMARK  212  A    between atoms: _529  and  _531
REMARK  213  A    between atoms: _531  and  _532
REMARK  214  A    between atoms: _531  and  _534
REMARK  215  A    between atoms: _534  and  _535
REMARK  216  A    between atoms: _535  and  _536
REMARK  217  A    between atoms: _539  and  _541
REMARK  218  A    between atoms: _541  and  _542
REMARK  219  A    between atoms: _541  and  _544
REMARK  220  A    between atoms: _544  and  _545
REMARK  221  A    between atoms: _548  and  _550
REMARK  222  A    between atoms: _550  and  _551
REMARK  223  A    between atoms: _550  and  _553
REMARK  224  A    between atoms: _553  and  _554
REMARK  225  A    between atoms: _557  and  _559
REMARK  226  A    between atoms: _559  and  _560
REMARK  227  A    between atoms: _559  and  _562
REMARK  228  A    between atoms: _562  and  _563
REMARK  229  A    between atoms: _563  and  _564
REMARK  230  A    between atoms: _564  and  _565
REMARK  231  A    between atoms: _574  and  _576
REMARK  232  A    between atoms: _576  and  _577
REMARK  233  A    between atoms: _576  and  _579
REMARK  234  A    between atoms: _579  and  _580
REMARK  235  A    between atoms: _583  and  _585
REMARK  236  A    between atoms: _585  and  _586
REMARK  237  A    between atoms: _585  and  _588
REMARK  238  A    between atoms: _588  and  _589
REMARK  239  A    between atoms: _589  and  _590
REMARK  240  A    between atoms: _593  and  _595
REMARK  241  A    between atoms: _595  and  _596
REMARK  242  A    between atoms: _595  and  _598
REMARK  243  A    between atoms: _598  and  _599
REMARK  244  A    between atoms: _599  and  _600
REMARK  245  A    between atoms: _605  and  _607
REMARK  246  A    between atoms: _607  and  _608
REMARK  247  A    between atoms: _607  and  _610
REMARK  248  A    between atoms: _610  and  _611
REMARK  249  A    between atoms: _611  and  _612
REMARK  250  A    between atoms: _615  and  _617
REMARK  251  A    between atoms: _617  and  _618
REMARK  252  A    between atoms: _617  and  _620
REMARK  253  A    between atoms: _620  and  _621
REMARK  254  A    between atoms: _627  and  _629
REMARK  255  A    between atoms: _629  and  _630
REMARK  256  A    between atoms: _629  and  _632
REMARK  257  A    between atoms: _632  and  _633
REMARK  258  A    between atoms: _639  and  _641
REMARK  259  A    between atoms: _641  and  _642
REMARK  260  A    between atoms: _641  and  _644
REMARK  261  A    between atoms: _644  and  _645
REMARK  262  A    between atoms: _648  and  _650
REMARK  263  A    between atoms: _650  and  _651
REMARK  264  A    between atoms: _650  and  _653
REMARK  265  A    between atoms: _653  and  _654
REMARK  266  A    between atoms: _659  and  _660
REMARK  267  A    between atoms: _662  and  _664
REMARK  268  A    between atoms: _664  and  _665
REMARK  269  A    between atoms: _668  and  _670
REMARK  270  A    between atoms: _670  and  _671
REMARK  271  A    between atoms: _670  and  _673
REMARK  272  A    between atoms: _673  and  _674
REMARK  273  A    between atoms: _674  and  _675
REMARK  274  A    between atoms: _681  and  _682
REMARK  275  A    between atoms: _687  and  _689
REMARK  276  A    between atoms: _689  and  _690
REMARK  277  A    between atoms: _689  and  _692
REMARK  278  A    between atoms: _692  and  _693
REMARK  279  A    between atoms: _696  and  _698
REMARK  280  A    between atoms: _698  and  _699
REMARK  281  A    between atoms: _698  and  _701
REMARK  282  A    between atoms: _701  and  _702
REMARK  283  A    between atoms: _702  and  _703
REMARK  284  A    between atoms: _706  and  _708
REMARK  285  A    between atoms: _708  and  _709
REMARK  286  A    between atoms: _708  and  _711
REMARK                            x       y       z     vdW  Elec       q    Type
REMARK                         _______ _______ _______ _____ _____    ______ ____
ROOT
ATOM      1  O   HOH     1      19.147 106.977  11.747  0.00  0.00    +0.000 OA
ENDROOT
TORSDOF 0
REMARK  Name = ../refined-set-2016/4tmk/4tmk_pocket.pdb
REMARK  286 active torsions:
REMARK  status: ('A' for Active; 'I' for Inactive)
REMARK    1  A    between atoms: _1  and  _3
REMARK    2  A    between atoms: _3  and  _4
REMARK    3  A    between atoms: _3  and  _6
REMARK    4  A    between atoms: _6  and  _7
REMARK    5  A    between atoms: _10  and  _12
REMARK    6  A    between atoms: _12  and  _13
REMARK    7  A    between atoms: _12  and  _15
REMARK    8  A    between atoms: _15  and  _16
REMARK    9  A    between atoms: _16  and  _17
REMARK   10  A    between atoms: _20  and  _22
REMARK   11  A    between atoms: _22  and  _23
REMARK   12  A    between atoms: _25  and  _27
REMARK   13  A    between atoms: _27  and  _28
REMARK   14  A    between atoms: _27  and  _30
REMARK   15  A    between atoms: _30  and  _31
REMARK   16  A    between atoms: _34  and  _36
REMARK   17  A    between atoms: _36  and  _37
REMARK   18  A    between atoms: _36  and  _39
REMARK   19  A    between atoms: _39  and  _40
REMARK   20  A    between atoms: _40  and  _41
REMARK   21  A    between atoms: _44  and  _46
REMARK   22  A    between atoms: _46  and  _47
REMARK   23  A    between atoms: _49  and  _51
REMARK   24  A    between atoms: _51  and  _52
REMARK   25  A    between atoms: _55  and  _57
REMARK   26  A    between atoms: _57  and  _58
REMARK   27  A    between atoms: _60  and  _62
REMARK   28  A    between atoms: _62  and  _63
REMARK   29  A    between atoms: _62  and  _65
REMARK   30  A    between atoms: _65  and  _66
REMARK   31  A    between atoms: _66  and  _67
REMARK   32  A    between atoms: _67  and  _68
REMARK   33  A    between atoms: _68  and  _69
REMARK   34  A    between atoms: _73  and  _75
REMARK   35  A    between atoms: _75  and  _76
REMARK   36  A    between atoms: _75  and  _78
REMARK   37  A    between atoms: _78  and  _79
REMARK   38  A    between atoms: _82  and  _84
REMARK   39  A    between atoms: _84  and  _85
REMARK   40  A    between atoms: _84  and  _87
REMARK   41  A    between atoms: _87  and  _88
REMARK   42  A    between atoms: _91  and  _93
REMARK   43  A    between atoms: _93  and  _94
REMARK   44  A    between atoms: _97  and  _99
REMARK   45  A    between atoms: _99  and  _100
REMARK   46  A    between atoms: _99  and  _102
REMARK   47  A    between atoms: _102  and  _103
REMARK   48  A    between atoms: _103  and  _104
REMARK   49  A    between atoms: _104  and  _105
REMARK   50  A    between atoms: _114  and  _116
REMARK   51  A    between atoms: _116  and  _117
REMARK   52  A    between atoms: _116  and  _119
REMARK   53  A    between atoms: _119  and  _120
REMARK   54  A    between atoms: _125  and  _127
REMARK   55  A    between atoms: _127  and  _128
REMARK   56  A    between atoms: _127  and  _130
REMARK   57  A    between atoms: _130  and  _131
REMARK   58  A    between atoms: _131  and  _132
REMARK   59  A    between atoms: _132  and  _133
REMARK   60  A    between atoms: _142  and  _144
REMARK   61  A    between atoms: _144  and  _145
REMARK   62  A    between atoms: _144  and  _147
REMARK   63  A    between atoms: _147  and  _148
REMARK   64  A    between atoms: _148  and  _149
REMARK   65  A    between atoms: _153  and  _154
REMARK   66  A    between atoms: _159  and  _161
REMARK   67  A    between atoms: _161  and  _162
REMARK   68  A    between atoms: _164  and  _166
REMARK   69  A    between atoms: _166  and  _167
REMARK   70  A    between atoms: _166  and  _169
REMARK   71  A    between atoms: _169  and  _170
REMARK   72  A    between atoms: _170  and  _171
REMARK   73  A    between atoms: _171  and  _172
REMARK   74  A    between atoms: _181  and  _183
REMARK   75  A    between atoms: _183  and  _184
REMARK   76  A    between atoms: _183  and  _186
REMARK   77  A    between atoms: _186  and  _187
REMARK   78  A    between atoms: _190  and  _192
REMARK   79  A    between atoms: _192  and  _193
REMARK   80  A    between atoms: _192  and  _195
REMARK   81  A    between atoms: _195  and  _196
REMARK   82  A    between atoms: _199  and  _201
REMARK   83  A    between atoms: _201  and  _202
REMARK   84  A    between atoms: _201  and  _204
REMARK   85  A    between atoms: _204  and  _205
REMARK   86  A    between atoms: _205  and  _206
REMARK   87  A    between atoms: _209  and  _211
REMARK   88  A    between atoms: _211  and  _212
REMARK   89  A    between atoms: _211  and  _214
REMARK   90  A    between atoms: _217  and  _219
REMARK   91  A    between atoms: _219  and  _220
REMARK   92  A    between atoms: _219  and  _222
REMARK   93  A    between atoms: _222  and  _223
REMARK   94  A    between atoms: _223  and  _224
REMARK   95  A    between atoms: _226  and  _228
REMARK   96  A    between atoms: _228  and  _229
REMARK   97  A    between atoms: _228  and  _231
REMARK   98  A    between atoms: _231  and  _232
REMARK   99  A    between atoms: _238  and  _240
REMARK  100  A    between atoms: _240  and  _241
REMARK  101  A    between atoms: _240  and  _243
REMARK  102  A    between atoms: _243  and  _244
REMARK  103  A    between atoms: _249  and  _250
REMARK  104  A    between atoms: _252  and  _254
REMARK  105  A    between atoms: _254  and  _255
REMARK  106  A    between atoms: _258  and  _260
REMARK  107  A    between atoms: _260  and  _261
REMARK  108  A    between atoms: _260  and  _263
REMARK  109  A    between atoms: _263  and  _264
REMARK  110  A    between atoms: _264  and  _265
REMARK  111  A    between atoms: _265  and  _266
REMARK  112  A    between atoms: _275  and  _277
REMARK  113  A    between atoms: _277  and  _278
REMARK  114  A    between atoms: _277  and  _280
REMARK  115  A    between atoms: _280  and  _281
REMARK  116  A    between atoms: _284  and  _286
REMARK  117  A    between atoms: _286  and  _287
REMARK  118  A    between atoms: _286  and  _289
REMARK  119  A    between atoms: _289  and  _290
REMARK  120  A    between atoms: _290  and  _291
REMARK  121  A    between atoms: _291  and  _292
REMARK  122  A    between atoms: _301  and  _303
REMARK  123  A    between atoms: _303  and  _304
REMARK  124  A    between atoms: _303  and  _306
REMARK  125  A    between atoms: _306  and  _307
REMARK  126  A    between atoms: _312  and  _314
REMARK  127  A    between atoms: _314  and  _315
REMARK  128  A    between atoms: _314  and  _317
REMARK  129  A    between atoms: _317  and  _318
REMARK  130  A    between atoms: _321  and  _323
REMARK  131  A    between atoms: _323  and  _324
REMARK  132  A    between atoms: _323  and  _326
REMARK  133  A    between atoms: _326  and  _327
REMARK  134  A    between atoms: _330  and  _332
REMARK  135  A    between atoms: _332  and  _333
REMARK  136  A    between atoms: _332  and  _335
REMARK  137  A    between atoms: _335  and  _336
REMARK  138  A    between atoms: _338  and  _340
REMARK  139  A    between atoms: _340  and  _341
REMARK  140  A    between atoms: _340  and  _343
REMARK  141  A    between atoms: _343  and  _344
REMARK  142  A    between atoms: _347  and  _349
REMARK  143  A    between atoms: _349  and  _350
REMARK  144  A    between atoms: _349  and  _352
REMARK  145  A    between atoms: _352  and  _353
REMARK  146  A    between atoms: _353  and  _354
REMARK  147  A    between atoms: _359  and  _361
REMARK  148  A    between atoms: _361  and  _362
REMARK  149  A    between atoms: _365  and  _367
REMARK  150  A    between atoms: _367  and  _368
REMARK  151  A    between atoms: _367  and  _370
REMARK  152  A    between atoms: _370  and  _371
REMARK  153  A    between atoms: _376  and  _377
REMARK  154  A    between atoms: _379  and  _381
REMARK  155  A    between atoms: _381  and  _382
REMARK  156  A    between atoms: _381  and  _384
REMARK  157  A    between atoms: _384  and  _385
REMARK  158  A    between atoms: _385  and  _386
REMARK  159  A    between atoms: _391  and  _393
REMARK  160  A    between atoms: _393  and  _394
REMARK  161  A    between atoms: _396  and  _398
REMARK  162  A    between atoms: _398  and  _399
REMARK  163  A    between atoms: _401  and  _403
REMARK  164  A    between atoms: _403  and  _404
REMARK  165  A    between atoms: _403  and  _406
REMARK  166  A    between atoms: _406  and  _407
REMARK  167  A    between atoms: _407  and  _408
REMARK  168  A    between atoms: _408  and  _409
REMARK  169  A    between atoms: _418  and  _420
REMARK  170  A    between atoms: _420  and  _421
REMARK  171  A    between atoms: _420  and  _423
REMARK  172  A    between atoms: _423  and  _424
REMARK  173  A    between atoms: _427  and  _429
REMARK  174  A    between atoms: _429  and  _430
REMARK  175  A    between atoms: _429  and  _432
REMARK  176  A    between atoms: _435  and  _437
REMARK  177  A    between atoms: _437  and  _438
REMARK  178  A    between atoms: _437  and  _440
REMARK  179  A    between atoms: _443  and  _445
REMARK  180  A    between atoms: _445  and  _446
REMARK  181  A    between atoms: _448  and  _450
REMARK  182  A    between atoms: _450  and  _451
REMARK  183  A    between atoms: _450  and  _453
REMARK  184  A    between atoms: _453  and  _454
REMARK  185  A    between atoms: _454  and  _455
REMARK  186  A    between atoms: _455  and  _456
REMARK  187  A    between atoms: _456  and  _457
REMARK  188  A    between atoms: _461  and  _463
REMARK  189  A    between atoms: _463  and  _464
REMARK  190  A    between atoms: _463  and  _466
REMARK  191  A    between atoms: _466  and  _467
REMARK  192  A    between atoms: _467  and  _468
REMARK  193  A    between atoms: _468  and  _469
REMARK  194  A    between atoms: _478  and  _480
REMARK  195  A    between atoms: _480  and  _481
REMARK  196  A    between atoms: _484  and  _486
REMARK  197  A    between atoms: _486  and  _487
REMARK  198  A    between atoms: _486  and  _489
REMARK  199  A    between atoms: _489  and  _490
REMARK  200  A    between atoms: _490  and  _491
REMARK  201  A    between atoms: _491  and  _492
REMARK  202  A    between atoms: _501  and  _503
REMARK  203  A    between atoms: _503  and  _504
REMARK  204  A    between atoms: _507  and  _509
REMARK  205  A    between atoms: _509  and  _510
REMARK  206  A    between atoms: _509  and  _512
REMARK  207  A    between atoms: _512  and  _513
REMARK  208  A    between atoms: _513  and  _514
REMARK  209  A    between atoms: _514  and  _515
REMARK  210  A    between atoms: _524  and  _526
REMARK  211  A    between atoms: _526  and  _527
REMARK  212  A    between atoms: _529  and  _531
REMARK  213  A    between atoms: _531  and  _532
REMARK  214  A    between atoms: _531  and  _534
REMARK  215  A    between atoms: _534  and  _535
REMARK  216  A    between atoms: _535  and  _536
REMARK  217  A    between atoms: _539  and  _541
REMARK  218  A    between atoms: _541  and  _542
REMARK  219  A    between atoms: _541  and  _544
REMARK  220  A    between atoms: _544  and  _545
REMARK  221  A    between atoms: _548  and  _550
REMARK  222  A    between atoms: _550  and  _551
REMARK  223  A    between atoms: _550  and  _553
REMARK  224  A    between atoms: _553  and  _554
REMARK  225  A    between atoms: _557  and  _559
REMARK  226  A    between atoms: _559  and  _560
REMARK  227  A    between atoms: _559  and  _562
REMARK  228  A    between atoms: _562  and  _563
REMARK  229  A    between atoms: _563  and  _564
REMARK  230  A    between atoms: _564  and  _565
REMARK  231  A    between atoms: _574  and  _576
REMARK  232  A    between atoms: _576  and  _577
REMARK  233  A    between atoms: _576  and  _579
REMARK  234  A    between atoms: _579  and  _580
REMARK  235  A    between atoms: _583  and  _585
REMARK  236  A    between atoms: _585  and  _586
REMARK  237  A    between atoms: _585  and  _588
REMARK  238  A    between atoms: _588  and  _589
REMARK  239  A    between atoms: _589  and  _590
REMARK  240  A    between atoms: _593  and  _595
REMARK  241  A    between atoms: _595  and  _596
REMARK  242  A    between atoms: _595  and  _598
REMARK  243  A    between atoms: _598  and  _599
REMARK  244  A    between atoms: _599  and  _600
REMARK  245  A    between atoms: _605  and  _607
REMARK  246  A    between atoms: _607  and  _608
REMARK  247  A    between atoms: _607  and  _610
REMARK  248  A    between atoms: _610  and  _611
REMARK  249  A    between atoms: _611  and  _612
REMARK  250  A    between atoms: _615  and  _617
REMARK  251  A    between atoms: _617  and  _618
REMARK  252  A    between atoms: _617  and  _620
REMARK  253  A    between atoms: _620  and  _621
REMARK  254  A    between atoms: _627  and  _629
REMARK  255  A    between atoms: _629  and  _630
REMARK  256  A    between atoms: _629  and  _632
REMARK  257  A    between atoms: _632  and  _633
REMARK  258  A    between atoms: _639  and  _641
REMARK  259  A    between atoms: _641  and  _642
REMARK  260  A    between atoms: _641  and  _644
REMARK  261  A    between atoms: _644  and  _645
REMARK  262  A    between atoms: _648  and  _650
REMARK  263  A    between atoms: _650  and  _651
REMARK  264  A    between atoms: _650  and  _653
REMARK  265  A    between atoms: _653  and  _654
REMARK  266  A    between atoms: _659  and  _660
REMARK  267  A    between atoms: _662  and  _664
REMARK  268  A    between atoms: _664  and  _665
REMARK  269  A    between atoms: _668  and  _670
REMARK  270  A    between atoms: _670  and  _671
REMARK  271  A    between atoms: _670  and  _673
REMARK  272  A    between atoms: _673  and  _674
REMARK  273  A    between atoms: _674  and  _675
REMARK  274  A    between atoms: _681  and  _682
REMARK  275  A    between atoms: _687  and  _689
REMARK  276  A    between atoms: _689  and  _690
REMARK  277  A    between atoms: _689  and  _692
REMARK  278  A    between atoms: _692  and  _693
REMARK  279  A    between atoms: _696  and  _698
REMARK  280  A    between atoms: _698  and  _699
REMARK  281  A    between atoms: _698  and  _701
REMARK  282  A    between atoms: _701  and  _702
REMARK  283  A    between atoms: _702  and  _703
REMARK  284  A    between atoms: _706  and  _708
REMARK  285  A    between atoms: _708  and  _709
REMARK  286  A    between atoms: _708  and  _711
REMARK                            x       y       z     vdW  Elec       q    Type
REMARK                         _______ _______ _______ _____ _____    ______ ____
ROOT
ATOM      1  O   HOH     1      16.435 106.545   9.947  0.00  0.00    +0.000 OA
ENDROOT
TORSDOF 0
REMARK  Name = ../refined-set-2016/4tmk/4tmk_pocket.pdb
REMARK  286 active torsions:
REMARK  status: ('A' for Active; 'I' for Inactive)
REMARK    1  A    between atoms: _1  and  _3
REMARK    2  A    between atoms: _3  and  _4
REMARK    3  A    between atoms: _3  and  _6
REMARK    4  A    between atoms: _6  and  _7
REMARK    5  A    between atoms: _10  and  _12
REMARK    6  A    between atoms: _12  and  _13
REMARK    7  A    between atoms: _12  and  _15
REMARK    8  A    between atoms: _15  and  _16
REMARK    9  A    between atoms: _16  and  _17
REMARK   10  A    between atoms: _20  and  _22
REMARK   11  A    between atoms: _22  and  _23
REMARK   12  A    between atoms: _25  and  _27
REMARK   13  A    between atoms: _27  and  _28
REMARK   14  A    between atoms: _27  and  _30
REMARK   15  A    between atoms: _30  and  _31
REMARK   16  A    between atoms: _34  and  _36
REMARK   17  A    between atoms: _36  and  _37
REMARK   18  A    between atoms: _36  and  _39
REMARK   19  A    between atoms: _39  and  _40
REMARK   20  A    between atoms: _40  and  _41
REMARK   21  A    between atoms: _44  and  _46
REMARK   22  A    between atoms: _46  and  _47
REMARK   23  A    between atoms: _49  and  _51
REMARK   24  A    between atoms: _51  and  _52
REMARK   25  A    between atoms: _55  and  _57
REMARK   26  A    between atoms: _57  and  _58
REMARK   27  A    between atoms: _60  and  _62
REMARK   28  A    between atoms: _62  and  _63
REMARK   29  A    between atoms: _62  and  _65
REMARK   30  A    between atoms: _65  and  _66
REMARK   31  A    between atoms: _66  and  _67
REMARK   32  A    between atoms: _67  and  _68
REMARK   33  A    between atoms: _68  and  _69
REMARK   34  A    between atoms: _73  and  _75
REMARK   35  A    between atoms: _75  and  _76
REMARK   36  A    between atoms: _75  and  _78
REMARK   37  A    between atoms: _78  and  _79
REMARK   38  A    between atoms: _82  and  _84
REMARK   39  A    between atoms: _84  and  _85
REMARK   40  A    between atoms: _84  and  _87
REMARK   41  A    between atoms: _87  and  _88
REMARK   42  A    between atoms: _91  and  _93
REMARK   43  A    between atoms: _93  and  _94
REMARK   44  A    between atoms: _97  and  _99
REMARK   45  A    between atoms: _99  and  _100
REMARK   46  A    between atoms: _99  and  _102
REMARK   47  A    between atoms: _102  and  _103
REMARK   48  A    between atoms: _103  and  _104
REMARK   49  A    between atoms: _104  and  _105
REMARK   50  A    between atoms: _114  and  _116
REMARK   51  A    between atoms: _116  and  _117
REMARK   52  A    between atoms: _116  and  _119
REMARK   53  A    between atoms: _119  and  _120
REMARK   54  A    between atoms: _125  and  _127
REMARK   55  A    between atoms: _127  and  _128
REMARK   56  A    between atoms: _127  and  _130
REMARK   57  A    between atoms: _130  and  _131
REMARK   58  A    between atoms: _131  and  _132
REMARK   59  A    between atoms: _132  and  _133
REMARK   60  A    between atoms: _142  and  _144
REMARK   61  A    between atoms: _144  and  _145
REMARK   62  A    between atoms: _144  and  _147
REMARK   63  A    between atoms: _147  and  _148
REMARK   64  A    between atoms: _148  and  _149
REMARK   65  A    between atoms: _153  and  _154
REMARK   66  A    between atoms: _159  and  _161
REMARK   67  A    between atoms: _161  and  _162
REMARK   68  A    between atoms: _164  and  _166
REMARK   69  A    between atoms: _166  and  _167
REMARK   70  A    between atoms: _166  and  _169
REMARK   71  A    between atoms: _169  and  _170
REMARK   72  A    between atoms: _170  and  _171
REMARK   73  A    between atoms: _171  and  _172
REMARK   74  A    between atoms: _181  and  _183
REMARK   75  A    between atoms: _183  and  _184
REMARK   76  A    between atoms: _183  and  _186
REMARK   77  A    between atoms: _186  and  _187
REMARK   78  A    between atoms: _190  and  _192
REMARK   79  A    between atoms: _192  and  _193
REMARK   80  A    between atoms: _192  and  _195
REMARK   81  A    between atoms: _195  and  _196
REMARK   82  A    between atoms: _199  and  _201
REMARK   83  A    between atoms: _201  and  _202
REMARK   84  A    between atoms: _201  and  _204
REMARK   85  A    between atoms: _204  and  _205
REMARK   86  A    between atoms: _205  and  _206
REMARK   87  A    between atoms: _209  and  _211
REMARK   88  A    between atoms: _211  and  _212
REMARK   89  A    between atoms: _211  and  _214
REMARK   90  A    between atoms: _217  and  _219
REMARK   91  A    between atoms: _219  and  _220
REMARK   92  A    between atoms: _219  and  _222
REMARK   93  A    between atoms: _222  and  _223
REMARK   94  A    between atoms: _223  and  _224
REMARK   95  A    between atoms: _226  and  _228
REMARK   96  A    between atoms: _228  and  _229
REMARK   97  A    between atoms: _228  and  _231
REMARK   98  A    between atoms: _231  and  _232
REMARK   99  A    between atoms: _238  and  _240
REMARK  100  A    between atoms: _240  and  _241
REMARK  101  A    between atoms: _240  and  _243
REMARK  102  A    between atoms: _243  and  _244
REMARK  103  A    between atoms: _249  and  _250
REMARK  104  A    between atoms: _252  and  _254
REMARK  105  A    between atoms: _254  and  _255
REMARK  106  A    between atoms: _258  and  _260
REMARK  107  A    between atoms: _260  and  _261
REMARK  108  A    between atoms: _260  and  _263
REMARK  109  A    between atoms: _263  and  _264
REMARK  110  A    between atoms: _264  and  _265
REMARK  111  A    between atoms: _265  and  _266
REMARK  112  A    between atoms: _275  and  _277
REMARK  113  A    between atoms: _277  and  _278
REMARK  114  A    between atoms: _277  and  _280
REMARK  115  A    between atoms: _280  and  _281
REMARK  116  A    between atoms: _284  and  _286
REMARK  117  A    between atoms: _286  and  _287
REMARK  118  A    between atoms: _286  and  _289
REMARK  119  A    between atoms: _289  and  _290
REMARK  120  A    between atoms: _290  and  _291
REMARK  121  A    between atoms: _291  and  _292
REMARK  122  A    between atoms: _301  and  _303
REMARK  123  A    between atoms: _303  and  _304
REMARK  124  A    between atoms: _303  and  _306
REMARK  125  A    between atoms: _306  and  _307
REMARK  126  A    between atoms: _312  and  _314
REMARK  127  A    between atoms: _314  and  _315
REMARK  128  A    between atoms: _314  and  _317
REMARK  129  A    between atoms: _317  and  _318
REMARK  130  A    between atoms: _321  and  _323
REMARK  131  A    between atoms: _323  and  _324
REMARK  132  A    between atoms: _323  and  _326
REMARK  133  A    between atoms: _326  and  _327
REMARK  134  A    between atoms: _330  and  _332
REMARK  135  A    between atoms: _332  and  _333
REMARK  136  A    between atoms: _332  and  _335
REMARK  137  A    between atoms: _335  and  _336
REMARK  138  A    between atoms: _338  and  _340
REMARK  139  A    between atoms: _340  and  _341
REMARK  140  A    between atoms: _340  and  _343
REMARK  141  A    between atoms: _343  and  _344
REMARK  142  A    between atoms: _347  and  _349
REMARK  143  A    between atoms: _349  and  _350
REMARK  144  A    between atoms: _349  and  _352
REMARK  145  A    between atoms: _352  and  _353
REMARK  146  A    between atoms: _353  and  _354
REMARK  147  A    between atoms: _359  and  _361
REMARK  148  A    between atoms: _361  and  _362
REMARK  149  A    between atoms: _365  and  _367
REMARK  150  A    between atoms: _367  and  _368
REMARK  151  A    between atoms: _367  and  _370
REMARK  152  A    between atoms: _370  and  _371
REMARK  153  A    between atoms: _376  and  _377
REMARK  154  A    between atoms: _379  and  _381
REMARK  155  A    between atoms: _381  and  _382
REMARK  156  A    between atoms: _381  and  _384
REMARK  157  A    between atoms: _384  and  _385
REMARK  158  A    between atoms: _385  and  _386
REMARK  159  A    between atoms: _391  and  _393
REMARK  160  A    between atoms: _393  and  _394
REMARK  161  A    between atoms: _396  and  _398
REMARK  162  A    between atoms: _398  and  _399
REMARK  163  A    between atoms: _401  and  _403
REMARK  164  A    between atoms: _403  and  _404
REMARK  165  A    between atoms: _403  and  _406
REMARK  166  A    between atoms: _406  and  _407
REMARK  167  A    between atoms: _407  and  _408
REMARK  168  A    between atoms: _408  and  _409
REMARK  169  A    between atoms: _418  and  _420
REMARK  170  A    between atoms: _420  and  _421
REMARK  171  A    between atoms: _420  and  _423
REMARK  172  A    between atoms: _423  and  _424
REMARK  173  A    between atoms: _427  and  _429
REMARK  174  A    between atoms: _429  and  _430
REMARK  175  A    between atoms: _429  and  _432
REMARK  176  A    between atoms: _435  and  _437
REMARK  177  A    between atoms: _437  and  _438
REMARK  178  A    between atoms: _437  and  _440
REMARK  179  A    between atoms: _443  and  _445
REMARK  180  A    between atoms: _445  and  _446
REMARK  181  A    between atoms: _448  and  _450
REMARK  182  A    between atoms: _450  and  _451
REMARK  183  A    between atoms: _450  and  _453
REMARK  184  A    between atoms: _453  and  _454
REMARK  185  A    between atoms: _454  and  _455
REMARK  186  A    between atoms: _455  and  _456
REMARK  187  A    between atoms: _456  and  _457
REMARK  188  A    between atoms: _461  and  _463
REMARK  189  A    between atoms: _463  and  _464
REMARK  190  A    between atoms: _463  and  _466
REMARK  191  A    between atoms: _466  and  _467
REMARK  192  A    between atoms: _467  and  _468
REMARK  193  A    between atoms: _468  and  _469
REMARK  194  A    between atoms: _478  and  _480
REMARK  195  A    between atoms: _480  and  _481
REMARK  196  A    between atoms: _484  and  _486
REMARK  197  A    between atoms: _486  and  _487
REMARK  198  A    between atoms: _486  and  _489
REMARK  199  A    between atoms: _489  and  _490
REMARK  200  A    between atoms: _490  and  _491
REMARK  201  A    between atoms: _491  and  _492
REMARK  202  A    between atoms: _501  and  _503
REMARK  203  A    between atoms: _503  and  _504
REMARK  204  A    between atoms: _507  and  _509
REMARK  205  A    between atoms: _509  and  _510
REMARK  206  A    between atoms: _509  and  _512
REMARK  207  A    between atoms: _512  and  _513
REMARK  208  A    between atoms: _513  and  _514
REMARK  209  A    between atoms: _514  and  _515
REMARK  210  A    between atoms: _524  and  _526
REMARK  211  A    between atoms: _526  and  _527
REMARK  212  A    between atoms: _529  and  _531
REMARK  213  A    between atoms: _531  and  _532
REMARK  214  A    between atoms: _531  and  _534
REMARK  215  A    between atoms: _534  and  _535
REMARK  216  A    between atoms: _535  and  _536
REMARK  217  A    between atoms: _539  and  _541
REMARK  218  A    between atoms: _541  and  _542
REMARK  219  A    between atoms: _541  and  _544
REMARK  220  A    between atoms: _544  and  _545
REMARK  221  A    between atoms: _548  and  _550
REMARK  222  A    between atoms: _550  and  _551
REMARK  223  A    between atoms: _550  and  _553
REMARK  224  A    between atoms: _553  and  _554
REMARK  225  A    between atoms: _557  and  _559
REMARK  226  A    between atoms: _559  and  _560
REMARK  227  A    between atoms: _559  and  _562
REMARK  228  A    between atoms: _562  and  _563
REMARK  229  A    between atoms: _563  and  _564
REMARK  230  A    between atoms: _564  and  _565
REMARK  231  A    between atoms: _574  and  _576
REMARK  232  A    between atoms: _576  and  _577
REMARK  233  A    between atoms: _576  and  _579
REMARK  234  A    between atoms: _579  and  _580
REMARK  235  A    between atoms: _583  and  _585
REMARK  236  A    between atoms: _585  and  _586
REMARK  237  A    between atoms: _585  and  _588
REMARK  238  A    between atoms: _588  and  _589
REMARK  239  A    between atoms: _589  and  _590
REMARK  240  A    between atoms: _593  and  _595
REMARK  241  A    between atoms: _595  and  _596
REMARK  242  A    between atoms: _595  and  _598
REMARK  243  A    between atoms: _598  and  _599
REMARK  244  A    between atoms: _599  and  _600
REMARK  245  A    between atoms: _605  and  _607
REMARK  246  A    between atoms: _607  and  _608
REMARK  247  A    between atoms: _607  and  _610
REMARK  248  A    between atoms: _610  and  _611
REMARK  249  A    between atoms: _611  and  _612
REMARK  250  A    between atoms: _615  and  _617
REMARK  251  A    between atoms: _617  and  _618
REMARK  252  A    between atoms: _617  and  _620
REMARK  253  A    between atoms: _620  and  _621
REMARK  254  A    between atoms: _627  and  _629
REMARK  255  A    between atoms: _629  and  _630
REMARK  256  A    between atoms: _629  and  _632
REMARK  257  A    between atoms: _632  and  _633
REMARK  258  A    between atoms: _639  and  _641
REMARK  259  A    between atoms: _641  and  _642
REMARK  260  A    between atoms: _641  and  _644
REMARK  261  A    between atoms: _644  and  _645
REMARK  262  A    between atoms: _648  and  _650
REMARK  263  A    between atoms: _650  and  _651
REMARK  264  A    between atoms: _650  and  _653
REMARK  265  A    between atoms: _653  and  _654
REMARK  266  A    between atoms: _659  and  _660
REMARK  267  A    between atoms: _662  and  _664
REMARK  268  A    between atoms: _664  and  _665
REMARK  269  A    between atoms: _668  and  _670
REMARK  270  A    between atoms: _670  and  _671
REMARK  271  A    between atoms: _670  and  _673
REMARK  272  A    between atoms: _673  and  _674
REMARK  273  A    between atoms: _674  and  _675
REMARK  274  A    between atoms: _681  and  _682
REMARK  275  A    between atoms: _687  and  _689
REMARK  276  A    between atoms: _689  and  _690
REMARK  277  A    between atoms: _689  and  _692
REMARK  278  A    between atoms: _692  and  _693
REMARK  279  A    between atoms: _696  and  _698
REMARK  280  A    between atoms: _698  and  _699
REMARK  281  A    between atoms: _698  and  _701
REMARK  282  A    between atoms: _701  and  _702
REMARK  283  A    between atoms: _702  and  _703
REMARK  284  A    between atoms: _706  and  _708
REMARK  285  A    between atoms: _708  and  _709
REMARK  286  A    between atoms: _708  and  _711
REMARK                            x       y       z     vdW  Elec       q    Type
REMARK                         _______ _______ _______ _____ _____    ______ ____
ROOT
ATOM      1  O   HOH     1      20.139 110.016  12.975  0.00  0.00    +0.000 OA
ENDROOT
TORSDOF 0
REMARK  Name = ../refined-set-2016/4tmk/4tmk_pocket.pdb
REMARK  286 active torsions:
REMARK  status: ('A' for Active; 'I' for Inactive)
REMARK    1  A    between atoms: _1  and  _3
REMARK    2  A    between atoms: _3  and  _4
REMARK    3  A    between atoms: _3  and  _6
REMARK    4  A    between atoms: _6  and  _7
REMARK    5  A    between atoms: _10  and  _12
REMARK    6  A    between atoms: _12  and  _13
REMARK    7  A    between atoms: _12  and  _15
REMARK    8  A    between atoms: _15  and  _16
REMARK    9  A    between atoms: _16  and  _17
REMARK   10  A    between atoms: _20  and  _22
REMARK   11  A    between atoms: _22  and  _23
REMARK   12  A    between atoms: _25  and  _27
REMARK   13  A    between atoms: _27  and  _28
REMARK   14  A    between atoms: _27  and  _30
REMARK   15  A    between atoms: _30  and  _31
REMARK   16  A    between atoms: _34  and  _36
REMARK   17  A    between atoms: _36  and  _37
REMARK   18  A    between atoms: _36  and  _39
REMARK   19  A    between atoms: _39  and  _40
REMARK   20  A    between atoms: _40  and  _41
REMARK   21  A    between atoms: _44  and  _46
REMARK   22  A    between atoms: _46  and  _47
REMARK   23  A    between atoms: _49  and  _51
REMARK   24  A    between atoms: _51  and  _52
REMARK   25  A    between atoms: _55  and  _57
REMARK   26  A    between atoms: _57  and  _58
REMARK   27  A    between atoms: _60  and  _62
REMARK   28  A    between atoms: _62  and  _63
REMARK   29  A    between atoms: _62  and  _65
REMARK   30  A    between atoms: _65  and  _66
REMARK   31  A    between atoms: _66  and  _67
REMARK   32  A    between atoms: _67  and  _68
REMARK   33  A    between atoms: _68  and  _69
REMARK   34  A    between atoms: _73  and  _75
REMARK   35  A    between atoms: _75  and  _76
REMARK   36  A    between atoms: _75  and  _78
REMARK   37  A    between atoms: _78  and  _79
REMARK   38  A    between atoms: _82  and  _84
REMARK   39  A    between atoms: _84  and  _85
REMARK   40  A    between atoms: _84  and  _87
REMARK   41  A    between atoms: _87  and  _88
REMARK   42  A    between atoms: _91  and  _93
REMARK   43  A    between atoms: _93  and  _94
REMARK   44  A    between atoms: _97  and  _99
REMARK   45  A    between atoms: _99  and  _100
REMARK   46  A    between atoms: _99  and  _102
REMARK   47  A    between atoms: _102  and  _103
REMARK   48  A    between atoms: _103  and  _104
REMARK   49  A    between atoms: _104  and  _105
REMARK   50  A    between atoms: _114  and  _116
REMARK   51  A    between atoms: _116  and  _117
REMARK   52  A    between atoms: _116  and  _119
REMARK   53  A    between atoms: _119  and  _120
REMARK   54  A    between atoms: _125  and  _127
REMARK   55  A    between atoms: _127  and  _128
REMARK   56  A    between atoms: _127  and  _130
REMARK   57  A    between atoms: _130  and  _131
REMARK   58  A    between atoms: _131  and  _132
REMARK   59  A    between atoms: _132  and  _133
REMARK   60  A    between atoms: _142  and  _144
REMARK   61  A    between atoms: _144  and  _145
REMARK   62  A    between atoms: _144  and  _147
REMARK   63  A    between atoms: _147  and  _148
REMARK   64  A    between atoms: _148  and  _149
REMARK   65  A    between atoms: _153  and  _154
REMARK   66  A    between atoms: _159  and  _161
REMARK   67  A    between atoms: _161  and  _162
REMARK   68  A    between atoms: _164  and  _166
REMARK   69  A    between atoms: _166  and  _167
REMARK   70  A    between atoms: _166  and  _169
REMARK   71  A    between atoms: _169  and  _170
REMARK   72  A    between atoms: _170  and  _171
REMARK   73  A    between atoms: _171  and  _172
REMARK   74  A    between atoms: _181  and  _183
REMARK   75  A    between atoms: _183  and  _184
REMARK   76  A    between atoms: _183  and  _186
REMARK   77  A    between atoms: _186  and  _187
REMARK   78  A    between atoms: _190  and  _192
REMARK   79  A    between atoms: _192  and  _193
REMARK   80  A    between atoms: _192  and  _195
REMARK   81  A    between atoms: _195  and  _196
REMARK   82  A    between atoms: _199  and  _201
REMARK   83  A    between atoms: _201  and  _202
REMARK   84  A    between atoms: _201  and  _204
REMARK   85  A    between atoms: _204  and  _205
REMARK   86  A    between atoms: _205  and  _206
REMARK   87  A    between atoms: _209  and  _211
REMARK   88  A    between atoms: _211  and  _212
REMARK   89  A    between atoms: _211  and  _214
REMARK   90  A    between atoms: _217  and  _219
REMARK   91  A    between atoms: _219  and  _220
REMARK   92  A    between atoms: _219  and  _222
REMARK   93  A    between atoms: _222  and  _223
REMARK   94  A    between atoms: _223  and  _224
REMARK   95  A    between atoms: _226  and  _228
REMARK   96  A    between atoms: _228  and  _229
REMARK   97  A    between atoms: _228  and  _231
REMARK   98  A    between atoms: _231  and  _232
REMARK   99  A    between atoms: _238  and  _240
REMARK  100  A    between atoms: _240  and  _241
REMARK  101  A    between atoms: _240  and  _243
REMARK  102  A    between atoms: _243  and  _244
REMARK  103  A    between atoms: _249  and  _250
REMARK  104  A    between atoms: _252  and  _254
REMARK  105  A    between atoms: _254  and  _255
REMARK  106  A    between atoms: _258  and  _260
REMARK  107  A    between atoms: _260  and  _261
REMARK  108  A    between atoms: _260  and  _263
REMARK  109  A    between atoms: _263  and  _264
REMARK  110  A    between atoms: _264  and  _265
REMARK  111  A    between atoms: _265  and  _266
REMARK  112  A    between atoms: _275  and  _277
REMARK  113  A    between atoms: _277  and  _278
REMARK  114  A    between atoms: _277  and  _280
REMARK  115  A    between atoms: _280  and  _281
REMARK  116  A    between atoms: _284  and  _286
REMARK  117  A    between atoms: _286  and  _287
REMARK  118  A    between atoms: _286  and  _289
REMARK  119  A    between atoms: _289  and  _290
REMARK  120  A    between atoms: _290  and  _291
REMARK  121  A    between atoms: _291  and  _292
REMARK  122  A    between atoms: _301  and  _303
REMARK  123  A    between atoms: _303  and  _304
REMARK  124  A    between atoms: _303  and  _306
REMARK  125  A    between atoms: _306  and  _307
REMARK  126  A    between atoms: _312  and  _314
REMARK  127  A    between atoms: _314  and  _315
REMARK  128  A    between atoms: _314  and  _317
REMARK  129  A    between atoms: _317  and  _318
REMARK  130  A    between atoms: _321  and  _323
REMARK  131  A    between atoms: _323  and  _324
REMARK  132  A    between atoms: _323  and  _326
REMARK  133  A    between atoms: _326  and  _327
REMARK  134  A    between atoms: _330  and  _332
REMARK  135  A    between atoms: _332  and  _333
REMARK  136  A    between atoms: _332  and  _335
REMARK  137  A    between atoms: _335  and  _336
REMARK  138  A    between atoms: _338  and  _340
REMARK  139  A    between atoms: _340  and  _341
REMARK  140  A    between atoms: _340  and  _343
REMARK  141  A    between atoms: _343  and  _344
REMARK  142  A    between atoms: _347  and  _349
REMARK  143  A    between atoms: _349  and  _350
REMARK  144  A    between atoms: _349  and  _352
REMARK  145  A    between atoms: _352  and  _353
REMARK  146  A    between atoms: _353  and  _354
REMARK  147  A    between atoms: _359  and  _361
REMARK  148  A    between atoms: _361  and  _362
REMARK  149  A    between atoms: _365  and  _367
REMARK  150  A    between atoms: _367  and  _368
REMARK  151  A    between atoms: _367  and  _370
REMARK  152  A    between atoms: _370  and  _371
REMARK  153  A    between atoms: _376  and  _377
REMARK  154  A    between atoms: _379  and  _381
REMARK  155  A    between atoms: _381  and  _382
REMARK  156  A    between atoms: _381  and  _384
REMARK  157  A    between atoms: _384  and  _385
REMARK  158  A    between atoms: _385  and  _386
REMARK  159  A    between atoms: _391  and  _393
REMARK  160  A    between atoms: _393  and  _394
REMARK  161  A    between atoms: _396  and  _398
REMARK  162  A    between atoms: _398  and  _399
REMARK  163  A    between atoms: _401  and  _403
REMARK  164  A    between atoms: _403  and  _404
REMARK  165  A    between atoms: _403  and  _406
REMARK  166  A    between atoms: _406  and  _407
REMARK  167  A    between atoms: _407  and  _408
REMARK  168  A    between atoms: _408  and  _409
REMARK  169  A    between atoms: _418  and  _420
REMARK  170  A    between atoms: _420  and  _421
REMARK  171  A    between atoms: _420  and  _423
REMARK  172  A    between atoms: _423  and  _424
REMARK  173  A    between atoms: _427  and  _429
REMARK  174  A    between atoms: _429  and  _430
REMARK  175  A    between atoms: _429  and  _432
REMARK  176  A    between atoms: _435  and  _437
REMARK  177  A    between atoms: _437  and  _438
REMARK  178  A    between atoms: _437  and  _440
REMARK  179  A    between atoms: _443  and  _445
REMARK  180  A    between atoms: _445  and  _446
REMARK  181  A    between atoms: _448  and  _450
REMARK  182  A    between atoms: _450  and  _451
REMARK  183  A    between atoms: _450  and  _453
REMARK  184  A    between atoms: _453  and  _454
REMARK  185  A    between atoms: _454  and  _455
REMARK  186  A    between atoms: _455  and  _456
REMARK  187  A    between atoms: _456  and  _457
REMARK  188  A    between atoms: _461  and  _463
REMARK  189  A    between atoms: _463  and  _464
REMARK  190  A    between atoms: _463  and  _466
REMARK  191  A    between atoms: _466  and  _467
REMARK  192  A    between atoms: _467  and  _468
REMARK  193  A    between atoms: _468  and  _469
REMARK  194  A    between atoms: _478  and  _480
REMARK  195  A    between atoms: _480  and  _481
REMARK  196  A    between atoms: _484  and  _486
REMARK  197  A    between atoms: _486  and  _487
REMARK  198  A    between atoms: _486  and  _489
REMARK  199  A    between atoms: _489  and  _490
REMARK  200  A    between atoms: _490  and  _491
REMARK  201  A    between atoms: _491  and  _492
REMARK  202  A    between atoms: _501  and  _503
REMARK  203  A    between atoms: _503  and  _504
REMARK  204  A    between atoms: _507  and  _509
REMARK  205  A    between atoms: _509  and  _510
REMARK  206  A    between atoms: _509  and  _512
REMARK  207  A    between atoms: _512  and  _513
REMARK  208  A    between atoms: _513  and  _514
REMARK  209  A    between atoms: _514  and  _515
REMARK  210  A    between atoms: _524  and  _526
REMARK  211  A    between atoms: _526  and  _527
REMARK  212  A    between atoms: _529  and  _531
REMARK  213  A    between atoms: _531  and  _532
REMARK  214  A    between atoms: _531  and  _534
REMARK  215  A    between atoms: _534  and  _535
REMARK  216  A    between atoms: _535  and  _536
REMARK  217  A    between atoms: _539  and  _541
REMARK  218  A    between atoms: _541  and  _542
REMARK  219  A    between atoms: _541  and  _544
REMARK  220  A    between atoms: _544  and  _545
REMARK  221  A    between atoms: _548  and  _550
REMARK  222  A    between atoms: _550  and  _551
REMARK  223  A    between atoms: _550  and  _553
REMARK  224  A    between atoms: _553  and  _554
REMARK  225  A    between atoms: _557  and  _559
REMARK  226  A    between atoms: _559  and  _560
REMARK  227  A    between atoms: _559  and  _562
REMARK  228  A    between atoms: _562  and  _563
REMARK  229  A    between atoms: _563  and  _564
REMARK  230  A    between atoms: _564  and  _565
REMARK  231  A    between atoms: _574  and  _576
REMARK  232  A    between atoms: _576  and  _577
REMARK  233  A    between atoms: _576  and  _579
REMARK  234  A    between atoms: _579  and  _580
REMARK  235  A    between atoms: _583  and  _585
REMARK  236  A    between atoms: _585  and  _586
REMARK  237  A    between atoms: _585  and  _588
REMARK  238  A    between atoms: _588  and  _589
REMARK  239  A    between atoms: _589  and  _590
REMARK  240  A    between atoms: _593  and  _595
REMARK  241  A    between atoms: _595  and  _596
REMARK  242  A    between atoms: _595  and  _598
REMARK  243  A    between atoms: _598  and  _599
REMARK  244  A    between atoms: _599  and  _600
REMARK  245  A    between atoms: _605  and  _607
REMARK  246  A    between atoms: _607  and  _608
REMARK  247  A    between atoms: _607  and  _610
REMARK  248  A    between atoms: _610  and  _611
REMARK  249  A    between atoms: _611  and  _612
REMARK  250  A    between atoms: _615  and  _617
REMARK  251  A    between atoms: _617  and  _618
REMARK  252  A    between atoms: _617  and  _620
REMARK  253  A    between atoms: _620  and  _621
REMARK  254  A    between atoms: _627  and  _629
REMARK  255  A    between atoms: _629  and  _630
REMARK  256  A    between atoms: _629  and  _632
REMARK  257  A    between atoms: _632  and  _633
REMARK  258  A    between atoms: _639  and  _641
REMARK  259  A    between atoms: _641  and  _642
REMARK  260  A    between atoms: _641  and  _644
REMARK  261  A    between atoms: _644  and  _645
REMARK  262  A    between atoms: _648  and  _650
REMARK  263  A    between atoms: _650  and  _651
REMARK  264  A    between atoms: _650  and  _653
REMARK  265  A    between atoms: _653  and  _654
REMARK  266  A    between atoms: _659  and  _660
REMARK  267  A    between atoms: _662  and  _664
REMARK  268  A    between atoms: _664  and  _665
REMARK  269  A    between atoms: _668  and  _670
REMARK  270  A    between atoms: _670  and  _671
REMARK  271  A    between atoms: _670  and  _673
REMARK  272  A    between atoms: _673  and  _674
REMARK  273  A    between atoms: _674  and  _675
REMARK  274  A    between atoms: _681  and  _682
REMARK  275  A    between atoms: _687  and  _689
REMARK  276  A    between atoms: _689  and  _690
REMARK  277  A    between atoms: _689  and  _692
REMARK  278  A    between atoms: _692  and  _693
REMARK  279  A    between atoms: _696  and  _698
REMARK  280  A    between atoms: _698  and  _699
REMARK  281  A    between atoms: _698  and  _701
REMARK  282  A    between atoms: _701  and  _702
REMARK  283  A    between atoms: _702  and  _703
REMARK  284  A    between atoms: _706  and  _708
REMARK  285  A    between atoms: _708  and  _709
REMARK  286  A    between atoms: _708  and  _711
REMARK                            x       y       z     vdW  Elec       q    Type
REMARK                         _______ _______ _______ _____ _____    ______ ____
ROOT
ATOM      1  O   HOH     1      12.408 112.499  17.064  0.00  0.00    +0.000 OA
ENDROOT
TORSDOF 0
REMARK  Name = ../refined-set-2016/4tmk/4tmk_pocket.pdb
REMARK  286 active torsions:
REMARK  status: ('A' for Active; 'I' for Inactive)
REMARK    1  A    between atoms: _1  and  _3
REMARK    2  A    between atoms: _3  and  _4
REMARK    3  A    between atoms: _3  and  _6
REMARK    4  A    between atoms: _6  and  _7
REMARK    5  A    between atoms: _10  and  _12
REMARK    6  A    between atoms: _12  and  _13
REMARK    7  A    between atoms: _12  and  _15
REMARK    8  A    between atoms: _15  and  _16
REMARK    9  A    between atoms: _16  and  _17
REMARK   10  A    between atoms: _20  and  _22
REMARK   11  A    between atoms: _22  and  _23
REMARK   12  A    between atoms: _25  and  _27
REMARK   13  A    between atoms: _27  and  _28
REMARK   14  A    between atoms: _27  and  _30
REMARK   15  A    between atoms: _30  and  _31
REMARK   16  A    between atoms: _34  and  _36
REMARK   17  A    between atoms: _36  and  _37
REMARK   18  A    between atoms: _36  and  _39
REMARK   19  A    between atoms: _39  and  _40
REMARK   20  A    between atoms: _40  and  _41
REMARK   21  A    between atoms: _44  and  _46
REMARK   22  A    between atoms: _46  and  _47
REMARK   23  A    between atoms: _49  and  _51
REMARK   24  A    between atoms: _51  and  _52
REMARK   25  A    between atoms: _55  and  _57
REMARK   26  A    between atoms: _57  and  _58
REMARK   27  A    between atoms: _60  and  _62
REMARK   28  A    between atoms: _62  and  _63
REMARK   29  A    between atoms: _62  and  _65
REMARK   30  A    between atoms: _65  and  _66
REMARK   31  A    between atoms: _66  and  _67
REMARK   32  A    between atoms: _67  and  _68
REMARK   33  A    between atoms: _68  and  _69
REMARK   34  A    between atoms: _73  and  _75
REMARK   35  A    between atoms: _75  and  _76
REMARK   36  A    between atoms: _75  and  _78
REMARK   37  A    between atoms: _78  and  _79
REMARK   38  A    between atoms: _82  and  _84
REMARK   39  A    between atoms: _84  and  _85
REMARK   40  A    between atoms: _84  and  _87
REMARK   41  A    between atoms: _87  and  _88
REMARK   42  A    between atoms: _91  and  _93
REMARK   43  A    between atoms: _93  and  _94
REMARK   44  A    between atoms: _97  and  _99
REMARK   45  A    between atoms: _99  and  _100
REMARK   46  A    between atoms: _99  and  _102
REMARK   47  A    between atoms: _102  and  _103
REMARK   48  A    between atoms: _103  and  _104
REMARK   49  A    between atoms: _104  and  _105
REMARK   50  A    between atoms: _114  and  _116
REMARK   51  A    between atoms: _116  and  _117
REMARK   52  A    between atoms: _116  and  _119
REMARK   53  A    between atoms: _119  and  _120
REMARK   54  A    between atoms: _125  and  _127
REMARK   55  A    between atoms: _127  and  _128
REMARK   56  A    between atoms: _127  and  _130
REMARK   57  A    between atoms: _130  and  _131
REMARK   58  A    between atoms: _131  and  _132
REMARK   59  A    between atoms: _132  and  _133
REMARK   60  A    between atoms: _142  and  _144
REMARK   61  A    between atoms: _144  and  _145
REMARK   62  A    between atoms: _144  and  _147
REMARK   63  A    between atoms: _147  and  _148
REMARK   64  A    between atoms: _148  and  _149
REMARK   65  A    between atoms: _153  and  _154
REMARK   66  A    between atoms: _159  and  _161
REMARK   67  A    between atoms: _161  and  _162
REMARK   68  A    between atoms: _164  and  _166
REMARK   69  A    between atoms: _166  and  _167
REMARK   70  A    between atoms: _166  and  _169
REMARK   71  A    between atoms: _169  and  _170
REMARK   72  A    between atoms: _170  and  _171
REMARK   73  A    between atoms: _171  and  _172
REMARK   74  A    between atoms: _181  and  _183
REMARK   75  A    between atoms: _183  and  _184
REMARK   76  A    between atoms: _183  and  _186
REMARK   77  A    between atoms: _186  and  _187
REMARK   78  A    between atoms: _190  and  _192
REMARK   79  A    between atoms: _192  and  _193
REMARK   80  A    between atoms: _192  and  _195
REMARK   81  A    between atoms: _195  and  _196
REMARK   82  A    between atoms: _199  and  _201
REMARK   83  A    between atoms: _201  and  _202
REMARK   84  A    between atoms: _201  and  _204
REMARK   85  A    between atoms: _204  and  _205
REMARK   86  A    between atoms: _205  and  _206
REMARK   87  A    between atoms: _209  and  _211
REMARK   88  A    between atoms: _211  and  _212
REMARK   89  A    between atoms: _211  and  _214
REMARK   90  A    between atoms: _217  and  _219
REMARK   91  A    between atoms: _219  and  _220
REMARK   92  A    between atoms: _219  and  _222
REMARK   93  A    between atoms: _222  and  _223
REMARK   94  A    between atoms: _223  and  _224
REMARK   95  A    between atoms: _226  and  _228
REMARK   96  A    between atoms: _228  and  _229
REMARK   97  A    between atoms: _228  and  _231
REMARK   98  A    between atoms: _231  and  _232
REMARK   99  A    between atoms: _238  and  _240
REMARK  100  A    between atoms: _240  and  _241
REMARK  101  A    between atoms: _240  and  _243
REMARK  102  A    between atoms: _243  and  _244
REMARK  103  A    between atoms: _249  and  _250
REMARK  104  A    between atoms: _252  and  _254
REMARK  105  A    between atoms: _254  and  _255
REMARK  106  A    between atoms: _258  and  _260
REMARK  107  A    between atoms: _260  and  _261
REMARK  108  A    between atoms: _260  and  _263
REMARK  109  A    between atoms: _263  and  _264
REMARK  110  A    between atoms: _264  and  _265
REMARK  111  A    between atoms: _265  and  _266
REMARK  112  A    between atoms: _275  and  _277
REMARK  113  A    between atoms: _277  and  _278
REMARK  114  A    between atoms: _277  and  _280
REMARK  115  A    between atoms: _280  and  _281
REMARK  116  A    between atoms: _284  and  _286
REMARK  117  A    between atoms: _286  and  _287
REMARK  118  A    between atoms: _286  and  _289
REMARK  119  A    between atoms: _289  and  _290
REMARK  120  A    between atoms: _290  and  _291
REMARK  121  A    between atoms: _291  and  _292
REMARK  122  A    between atoms: _301  and  _303
REMARK  123  A    between atoms: _303  and  _304
REMARK  124  A    between atoms: _303  and  _306
REMARK  125  A    between atoms: _306  and  _307
REMARK  126  A    between atoms: _312  and  _314
REMARK  127  A    between atoms: _314  and  _315
REMARK  128  A    between atoms: _314  and  _317
REMARK  129  A    between atoms: _317  and  _318
REMARK  130  A    between atoms: _321  and  _323
REMARK  131  A    between atoms: _323  and  _324
REMARK  132  A    between atoms: _323  and  _326
REMARK  133  A    between atoms: _326  and  _327
REMARK  134  A    between atoms: _330  and  _332
REMARK  135  A    between atoms: _332  and  _333
REMARK  136  A    between atoms: _332  and  _335
REMARK  137  A    between atoms: _335  and  _336
REMARK  138  A    between atoms: _338  and  _340
REMARK  139  A    between atoms: _340  and  _341
REMARK  140  A    between atoms: _340  and  _343
REMARK  141  A    between atoms: _343  and  _344
REMARK  142  A    between atoms: _347  and  _349
REMARK  143  A    between atoms: _349  and  _350
REMARK  144  A    between atoms: _349  and  _352
REMARK  145  A    between atoms: _352  and  _353
REMARK  146  A    between atoms: _353  and  _354
REMARK  147  A    between atoms: _359  and  _361
REMARK  148  A    between atoms: _361  and  _362
REMARK  149  A    between atoms: _365  and  _367
REMARK  150  A    between atoms: _367  and  _368
REMARK  151  A    between atoms: _367  and  _370
REMARK  152  A    between atoms: _370  and  _371
REMARK  153  A    between atoms: _376  and  _377
REMARK  154  A    between atoms: _379  and  _381
REMARK  155  A    between atoms: _381  and  _382
REMARK  156  A    between atoms: _381  and  _384
REMARK  157  A    between atoms: _384  and  _385
REMARK  158  A    between atoms: _385  and  _386
REMARK  159  A    between atoms: _391  and  _393
REMARK  160  A    between atoms: _393  and  _394
REMARK  161  A    between atoms: _396  and  _398
REMARK  162  A    between atoms: _398  and  _399
REMARK  163  A    between atoms: _401  and  _403
REMARK  164  A    between atoms: _403  and  _404
REMARK  165  A    between atoms: _403  and  _406
REMARK  166  A    between atoms: _406  and  _407
REMARK  167  A    between atoms: _407  and  _408
REMARK  168  A    between atoms: _408  and  _409
REMARK  169  A    between atoms: _418  and  _420
REMARK  170  A    between atoms: _420  and  _421
REMARK  171  A    between atoms: _420  and  _423
REMARK  172  A    between atoms: _423  and  _424
REMARK  173  A    between atoms: _427  and  _429
REMARK  174  A    between atoms: _429  and  _430
REMARK  175  A    between atoms: _429  and  _432
REMARK  176  A    between atoms: _435  and  _437
REMARK  177  A    between atoms: _437  and  _438
REMARK  178  A    between atoms: _437  and  _440
REMARK  179  A    between atoms: _443  and  _445
REMARK  180  A    between atoms: _445  and  _446
REMARK  181  A    between atoms: _448  and  _450
REMARK  182  A    between atoms: _450  and  _451
REMARK  183  A    between atoms: _450  and  _453
REMARK  184  A    between atoms: _453  and  _454
REMARK  185  A    between atoms: _454  and  _455
REMARK  186  A    between atoms: _455  and  _456
REMARK  187  A    between atoms: _456  and  _457
REMARK  188  A    between atoms: _461  and  _463
REMARK  189  A    between atoms: _463  and  _464
REMARK  190  A    between atoms: _463  and  _466
REMARK  191  A    between atoms: _466  and  _467
REMARK  192  A    between atoms: _467  and  _468
REMARK  193  A    between atoms: _468  and  _469
REMARK  194  A    between atoms: _478  and  _480
REMARK  195  A    between atoms: _480  and  _481
REMARK  196  A    between atoms: _484  and  _486
REMARK  197  A    between atoms: _486  and  _487
REMARK  198  A    between atoms: _486  and  _489
REMARK  199  A    between atoms: _489  and  _490
REMARK  200  A    between atoms: _490  and  _491
REMARK  201  A    between atoms: _491  and  _492
REMARK  202  A    between atoms: _501  and  _503
REMARK  203  A    between atoms: _503  and  _504
REMARK  204  A    between atoms: _507  and  _509
REMARK  205  A    between atoms: _509  and  _510
REMARK  206  A    between atoms: _509  and  _512
REMARK  207  A    between atoms: _512  and  _513
REMARK  208  A    between atoms: _513  and  _514
REMARK  209  A    between atoms: _514  and  _515
REMARK  210  A    between atoms: _524  and  _526
REMARK  211  A    between atoms: _526  and  _527
REMARK  212  A    between atoms: _529  and  _531
REMARK  213  A    between atoms: _531  and  _532
REMARK  214  A    between atoms: _531  and  _534
REMARK  215  A    between atoms: _534  and  _535
REMARK  216  A    between atoms: _535  and  _536
REMARK  217  A    between atoms: _539  and  _541
REMARK  218  A    between atoms: _541  and  _542
REMARK  219  A    between atoms: _541  and  _544
REMARK  220  A    between atoms: _544  and  _545
REMARK  221  A    between atoms: _548  and  _550
REMARK  222  A    between atoms: _550  and  _551
REMARK  223  A    between atoms: _550  and  _553
REMARK  224  A    between atoms: _553  and  _554
REMARK  225  A    between atoms: _557  and  _559
REMARK  226  A    between atoms: _559  and  _560
REMARK  227  A    between atoms: _559  and  _562
REMARK  228  A    between atoms: _562  and  _563
REMARK  229  A    between atoms: _563  and  _564
REMARK  230  A    between atoms: _564  and  _565
REMARK  231  A    between atoms: _574  and  _576
REMARK  232  A    between atoms: _576  and  _577
REMARK  233  A    between atoms: _576  and  _579
REMARK  234  A    between atoms: _579  and  _580
REMARK  235  A    between atoms: _583  and  _585
REMARK  236  A    between atoms: _585  and  _586
REMARK  237  A    between atoms: _585  and  _588
REMARK  238  A    between atoms: _588  and  _589
REMARK  239  A    between atoms: _589  and  _590
REMARK  240  A    between atoms: _593  and  _595
REMARK  241  A    between atoms: _595  and  _596
REMARK  242  A    between atoms: _595  and  _598
REMARK  243  A    between atoms: _598  and  _599
REMARK  244  A    between atoms: _599  and  _600
REMARK  245  A    between atoms: _605  and  _607
REMARK  246  A    between atoms: _607  and  _608
REMARK  247  A    between atoms: _607  and  _610
REMARK  248  A    between atoms: _610  and  _611
REMARK  249  A    between atoms: _611  and  _612
REMARK  250  A    between atoms: _615  and  _617
REMARK  251  A    between atoms: _617  and  _618
REMARK  252  A    between atoms: _617  and  _620
REMARK  253  A    between atoms: _620  and  _621
REMARK  254  A    between atoms: _627  and  _629
REMARK  255  A    between atoms: _629  and  _630
REMARK  256  A    between atoms: _629  and  _632
REMARK  257  A    between atoms: _632  and  _633
REMARK  258  A    between atoms: _639  and  _641
REMARK  259  A    between atoms: _641  and  _642
REMARK  260  A    between atoms: _641  and  _644
REMARK  261  A    between atoms: _644  and  _645
REMARK  262  A    between atoms: _648  and  _650
REMARK  263  A    between atoms: _650  and  _651
REMARK  264  A    between atoms: _650  and  _653
REMARK  265  A    between atoms: _653  and  _654
REMARK  266  A    between atoms: _659  and  _660
REMARK  267  A    between atoms: _662  and  _664
REMARK  268  A    between atoms: _664  and  _665
REMARK  269  A    between atoms: _668  and  _670
REMARK  270  A    between atoms: _670  and  _671
REMARK  271  A    between atoms: _670  and  _673
REMARK  272  A    between atoms: _673  and  _674
REMARK  273  A    between atoms: _674  and  _675
REMARK  274  A    between atoms: _681  and  _682
REMARK  275  A    between atoms: _687  and  _689
REMARK  276  A    between atoms: _689  and  _690
REMARK  277  A    between atoms: _689  and  _692
REMARK  278  A    between atoms: _692  and  _693
REMARK  279  A    between atoms: _696  and  _698
REMARK  280  A    between atoms: _698  and  _699
REMARK  281  A    between atoms: _698  and  _701
REMARK  282  A    between atoms: _701  and  _702
REMARK  283  A    between atoms: _702  and  _703
REMARK  284  A    between atoms: _706  and  _708
REMARK  285  A    between atoms: _708  and  _709
REMARK  286  A    between atoms: _708  and  _711
REMARK                            x       y       z     vdW  Elec       q    Type
REMARK                         _______ _______ _______ _____ _____    ______ ____
ROOT
ATOM      1  O   HOH     1      14.373 114.151  21.633  0.00  0.00    +0.000 OA
ENDROOT
TORSDOF 0
REMARK  Name = ../refined-set-2016/4tmk/4tmk_pocket.pdb
REMARK  286 active torsions:
REMARK  status: ('A' for Active; 'I' for Inactive)
REMARK    1  A    between atoms: _1  and  _3
REMARK    2  A    between atoms: _3  and  _4
REMARK    3  A    between atoms: _3  and  _6
REMARK    4  A    between atoms: _6  and  _7
REMARK    5  A    between atoms: _10  and  _12
REMARK    6  A    between atoms: _12  and  _13
REMARK    7  A    between atoms: _12  and  _15
REMARK    8  A    between atoms: _15  and  _16
REMARK    9  A    between atoms: _16  and  _17
REMARK   10  A    between atoms: _20  and  _22
REMARK   11  A    between atoms: _22  and  _23
REMARK   12  A    between atoms: _25  and  _27
REMARK   13  A    between atoms: _27  and  _28
REMARK   14  A    between atoms: _27  and  _30
REMARK   15  A    between atoms: _30  and  _31
REMARK   16  A    between atoms: _34  and  _36
REMARK   17  A    between atoms: _36  and  _37
REMARK   18  A    between atoms: _36  and  _39
REMARK   19  A    between atoms: _39  and  _40
REMARK   20  A    between atoms: _40  and  _41
REMARK   21  A    between atoms: _44  and  _46
REMARK   22  A    between atoms: _46  and  _47
REMARK   23  A    between atoms: _49  and  _51
REMARK   24  A    between atoms: _51  and  _52
REMARK   25  A    between atoms: _55  and  _57
REMARK   26  A    between atoms: _57  and  _58
REMARK   27  A    between atoms: _60  and  _62
REMARK   28  A    between atoms: _62  and  _63
REMARK   29  A    between atoms: _62  and  _65
REMARK   30  A    between atoms: _65  and  _66
REMARK   31  A    between atoms: _66  and  _67
REMARK   32  A    between atoms: _67  and  _68
REMARK   33  A    between atoms: _68  and  _69
REMARK   34  A    between atoms: _73  and  _75
REMARK   35  A    between atoms: _75  and  _76
REMARK   36  A    between atoms: _75  and  _78
REMARK   37  A    between atoms: _78  and  _79
REMARK   38  A    between atoms: _82  and  _84
REMARK   39  A    between atoms: _84  and  _85
REMARK   40  A    between atoms: _84  and  _87
REMARK   41  A    between atoms: _87  and  _88
REMARK   42  A    between atoms: _91  and  _93
REMARK   43  A    between atoms: _93  and  _94
REMARK   44  A    between atoms: _97  and  _99
REMARK   45  A    between atoms: _99  and  _100
REMARK   46  A    between atoms: _99  and  _102
REMARK   47  A    between atoms: _102  and  _103
REMARK   48  A    between atoms: _103  and  _104
REMARK   49  A    between atoms: _104  and  _105
REMARK   50  A    between atoms: _114  and  _116
REMARK   51  A    between atoms: _116  and  _117
REMARK   52  A    between atoms: _116  and  _119
REMARK   53  A    between atoms: _119  and  _120
REMARK   54  A    between atoms: _125  and  _127
REMARK   55  A    between atoms: _127  and  _128
REMARK   56  A    between atoms: _127  and  _130
REMARK   57  A    between atoms: _130  and  _131
REMARK   58  A    between atoms: _131  and  _132
REMARK   59  A    between atoms: _132  and  _133
REMARK   60  A    between atoms: _142  and  _144
REMARK   61  A    between atoms: _144  and  _145
REMARK   62  A    between atoms: _144  and  _147
REMARK   63  A    between atoms: _147  and  _148
REMARK   64  A    between atoms: _148  and  _149
REMARK   65  A    between atoms: _153  and  _154
REMARK   66  A    between atoms: _159  and  _161
REMARK   67  A    between atoms: _161  and  _162
REMARK   68  A    between atoms: _164  and  _166
REMARK   69  A    between atoms: _166  and  _167
REMARK   70  A    between atoms: _166  and  _169
REMARK   71  A    between atoms: _169  and  _170
REMARK   72  A    between atoms: _170  and  _171
REMARK   73  A    between atoms: _171  and  _172
REMARK   74  A    between atoms: _181  and  _183
REMARK   75  A    between atoms: _183  and  _184
REMARK   76  A    between atoms: _183  and  _186
REMARK   77  A    between atoms: _186  and  _187
REMARK   78  A    between atoms: _190  and  _192
REMARK   79  A    between atoms: _192  and  _193
REMARK   80  A    between atoms: _192  and  _195
REMARK   81  A    between atoms: _195  and  _196
REMARK   82  A    between atoms: _199  and  _201
REMARK   83  A    between atoms: _201  and  _202
REMARK   84  A    between atoms: _201  and  _204
REMARK   85  A    between atoms: _204  and  _205
REMARK   86  A    between atoms: _205  and  _206
REMARK   87  A    between atoms: _209  and  _211
REMARK   88  A    between atoms: _211  and  _212
REMARK   89  A    between atoms: _211  and  _214
REMARK   90  A    between atoms: _217  and  _219
REMARK   91  A    between atoms: _219  and  _220
REMARK   92  A    between atoms: _219  and  _222
REMARK   93  A    between atoms: _222  and  _223
REMARK   94  A    between atoms: _223  and  _224
REMARK   95  A    between atoms: _226  and  _228
REMARK   96  A    between atoms: _228  and  _229
REMARK   97  A    between atoms: _228  and  _231
REMARK   98  A    between atoms: _231  and  _232
REMARK   99  A    between atoms: _238  and  _240
REMARK  100  A    between atoms: _240  and  _241
REMARK  101  A    between atoms: _240  and  _243
REMARK  102  A    between atoms: _243  and  _244
REMARK  103  A    between atoms: _249  and  _250
REMARK  104  A    between atoms: _252  and  _254
REMARK  105  A    between atoms: _254  and  _255
REMARK  106  A    between atoms: _258  and  _260
REMARK  107  A    between atoms: _260  and  _261
REMARK  108  A    between atoms: _260  and  _263
REMARK  109  A    between atoms: _263  and  _264
REMARK  110  A    between atoms: _264  and  _265
REMARK  111  A    between atoms: _265  and  _266
REMARK  112  A    between atoms: _275  and  _277
REMARK  113  A    between atoms: _277  and  _278
REMARK  114  A    between atoms: _277  and  _280
REMARK  115  A    between atoms: _280  and  _281
REMARK  116  A    between atoms: _284  and  _286
REMARK  117  A    between atoms: _286  and  _287
REMARK  118  A    between atoms: _286  and  _289
REMARK  119  A    between atoms: _289  and  _290
REMARK  120  A    between atoms: _290  and  _291
REMARK  121  A    between atoms: _291  and  _292
REMARK  122  A    between atoms: _301  and  _303
REMARK  123  A    between atoms: _303  and  _304
REMARK  124  A    between atoms: _303  and  _306
REMARK  125  A    between atoms: _306  and  _307
REMARK  126  A    between atoms: _312  and  _314
REMARK  127  A    between atoms: _314  and  _315
REMARK  128  A    between atoms: _314  and  _317
REMARK  129  A    between atoms: _317  and  _318
REMARK  130  A    between atoms: _321  and  _323
REMARK  131  A    between atoms: _323  and  _324
REMARK  132  A    between atoms: _323  and  _326
REMARK  133  A    between atoms: _326  and  _327
REMARK  134  A    between atoms: _330  and  _332
REMARK  135  A    between atoms: _332  and  _333
REMARK  136  A    between atoms: _332  and  _335
REMARK  137  A    between atoms: _335  and  _336
REMARK  138  A    between atoms: _338  and  _340
REMARK  139  A    between atoms: _340  and  _341
REMARK  140  A    between atoms: _340  and  _343
REMARK  141  A    between atoms: _343  and  _344
REMARK  142  A    between atoms: _347  and  _349
REMARK  143  A    between atoms: _349  and  _350
REMARK  144  A    between atoms: _349  and  _352
REMARK  145  A    between atoms: _352  and  _353
REMARK  146  A    between atoms: _353  and  _354
REMARK  147  A    between atoms: _359  and  _361
REMARK  148  A    between atoms: _361  and  _362
REMARK  149  A    between atoms: _365  and  _367
REMARK  150  A    between atoms: _367  and  _368
REMARK  151  A    between atoms: _367  and  _370
REMARK  152  A    between atoms: _370  and  _371
REMARK  153  A    between atoms: _376  and  _377
REMARK  154  A    between atoms: _379  and  _381
REMARK  155  A    between atoms: _381  and  _382
REMARK  156  A    between atoms: _381  and  _384
REMARK  157  A    between atoms: _384  and  _385
REMARK  158  A    between atoms: _385  and  _386
REMARK  159  A    between atoms: _391  and  _393
REMARK  160  A    between atoms: _393  and  _394
REMARK  161  A    between atoms: _396  and  _398
REMARK  162  A    between atoms: _398  and  _399
REMARK  163  A    between atoms: _401  and  _403
REMARK  164  A    between atoms: _403  and  _404
REMARK  165  A    between atoms: _403  and  _406
REMARK  166  A    between atoms: _406  and  _407
REMARK  167  A    between atoms: _407  and  _408
REMARK  168  A    between atoms: _408  and  _409
REMARK  169  A    between atoms: _418  and  _420
REMARK  170  A    between atoms: _420  and  _421
REMARK  171  A    between atoms: _420  and  _423
REMARK  172  A    between atoms: _423  and  _424
REMARK  173  A    between atoms: _427  and  _429
REMARK  174  A    between atoms: _429  and  _430
REMARK  175  A    between atoms: _429  and  _432
REMARK  176  A    between atoms: _435  and  _437
REMARK  177  A    between atoms: _437  and  _438
REMARK  178  A    between atoms: _437  and  _440
REMARK  179  A    between atoms: _443  and  _445
REMARK  180  A    between atoms: _445  and  _446
REMARK  181  A    between atoms: _448  and  _450
REMARK  182  A    between atoms: _450  and  _451
REMARK  183  A    between atoms: _450  and  _453
REMARK  184  A    between atoms: _453  and  _454
REMARK  185  A    between atoms: _454  and  _455
REMARK  186  A    between atoms: _455  and  _456
REMARK  187  A    between atoms: _456  and  _457
REMARK  188  A    between atoms: _461  and  _463
REMARK  189  A    between atoms: _463  and  _464
REMARK  190  A    between atoms: _463  and  _466
REMARK  191  A    between atoms: _466  and  _467
REMARK  192  A    between atoms: _467  and  _468
REMARK  193  A    between atoms: _468  and  _469
REMARK  194  A    between atoms: _478  and  _480
REMARK  195  A    between atoms: _480  and  _481
REMARK  196  A    between atoms: _484  and  _486
REMARK  197  A    between atoms: _486  and  _487
REMARK  198  A    between atoms: _486  and  _489
REMARK  199  A    between atoms: _489  and  _490
REMARK  200  A    between atoms: _490  and  _491
REMARK  201  A    between atoms: _491  and  _492
REMARK  202  A    between atoms: _501  and  _503
REMARK  203  A    between atoms: _503  and  _504
REMARK  204  A    between atoms: _507  and  _509
REMARK  205  A    between atoms: _509  and  _510
REMARK  206  A    between atoms: _509  and  _512
REMARK  207  A    between atoms: _512  and  _513
REMARK  208  A    between atoms: _513  and  _514
REMARK  209  A    between atoms: _514  and  _515
REMARK  210  A    between atoms: _524  and  _526
REMARK  211  A    between atoms: _526  and  _527
REMARK  212  A    between atoms: _529  and  _531
REMARK  213  A    between atoms: _531  and  _532
REMARK  214  A    between atoms: _531  and  _534
REMARK  215  A    between atoms: _534  and  _535
REMARK  216  A    between atoms: _535  and  _536
REMARK  217  A    between atoms: _539  and  _541
REMARK  218  A    between atoms: _541  and  _542
REMARK  219  A    between atoms: _541  and  _544
REMARK  220  A    between atoms: _544  and  _545
REMARK  221  A    between atoms: _548  and  _550
REMARK  222  A    between atoms: _550  and  _551
REMARK  223  A    between atoms: _550  and  _553
REMARK  224  A    between atoms: _553  and  _554
REMARK  225  A    between atoms: _557  and  _559
REMARK  226  A    between atoms: _559  and  _560
REMARK  227  A    between atoms: _559  and  _562
REMARK  228  A    between atoms: _562  and  _563
REMARK  229  A    between atoms: _563  and  _564
REMARK  230  A    between atoms: _564  and  _565
REMARK  231  A    between atoms: _574  and  _576
REMARK  232  A    between atoms: _576  and  _577
REMARK  233  A    between atoms: _576  and  _579
REMARK  234  A    between atoms: _579  and  _580
REMARK  235  A    between atoms: _583  and  _585
REMARK  236  A    between atoms: _585  and  _586
REMARK  237  A    between atoms: _585  and  _588
REMARK  238  A    between atoms: _588  and  _589
REMARK  239  A    between atoms: _589  and  _590
REMARK  240  A    between atoms: _593  and  _595
REMARK  241  A    between atoms: _595  and  _596
REMARK  242  A    between atoms: _595  and  _598
REMARK  243  A    between atoms: _598  and  _599
REMARK  244  A    between atoms: _599  and  _600
REMARK  245  A    between atoms: _605  and  _607
REMARK  246  A    between atoms: _607  and  _608
REMARK  247  A    between atoms: _607  and  _610
REMARK  248  A    between atoms: _610  and  _611
REMARK  249  A    between atoms: _611  and  _612
REMARK  250  A    between atoms: _615  and  _617
REMARK  251  A    between atoms: _617  and  _618
REMARK  252  A    between atoms: _617  and  _620
REMARK  253  A    between atoms: _620  and  _621
REMARK  254  A    between atoms: _627  and  _629
REMARK  255  A    between atoms: _629  and  _630
REMARK  256  A    between atoms: _629  and  _632
REMARK  257  A    between atoms: _632  and  _633
REMARK  258  A    between atoms: _639  and  _641
REMARK  259  A    between atoms: _641  and  _642
REMARK  260  A    between atoms: _641  and  _644
REMARK  261  A    between atoms: _644  and  _645
REMARK  262  A    between atoms: _648  and  _650
REMARK  263  A    between atoms: _650  and  _651
REMARK  264  A    between atoms: _650  and  _653
REMARK  265  A    between atoms: _653  and  _654
REMARK  266  A    between atoms: _659  and  _660
REMARK  267  A    between atoms: _662  and  _664
REMARK  268  A    between atoms: _664  and  _665
REMARK  269  A    between atoms: _668  and  _670
REMARK  270  A    between atoms: _670  and  _671
REMARK  271  A    between atoms: _670  and  _673
REMARK  272  A    between atoms: _673  and  _674
REMARK  273  A    between atoms: _674  and  _675
REMARK  274  A    between atoms: _681  and  _682
REMARK  275  A    between atoms: _687  and  _689
REMARK  276  A    between atoms: _689  and  _690
REMARK  277  A    between atoms: _689  and  _692
REMARK  278  A    between atoms: _692  and  _693
REMARK  279  A    between atoms: _696  and  _698
REMARK  280  A    between atoms: _698  and  _699
REMARK  281  A    between atoms: _698  and  _701
REMARK  282  A    between atoms: _701  and  _702
REMARK  283  A    between atoms: _702  and  _703
REMARK  284  A    between atoms: _706  and  _708
REMARK  285  A    between atoms: _708  and  _709
REMARK  286  A    between atoms: _708  and  _711
REMARK                            x       y       z     vdW  Elec       q    Type
REMARK                         _______ _______ _______ _____ _____    ______ ____
ROOT
ATOM      1  O   HOH     1      13.865 119.001  26.369  0.00  0.00    +0.000 OA
ENDROOT
TORSDOF 0
REMARK  Name = ../refined-set-2016/4tmk/4tmk_pocket.pdb
REMARK  286 active torsions:
REMARK  status: ('A' for Active; 'I' for Inactive)
REMARK    1  A    between atoms: _1  and  _3
REMARK    2  A    between atoms: _3  and  _4
REMARK    3  A    between atoms: _3  and  _6
REMARK    4  A    between atoms: _6  and  _7
REMARK    5  A    between atoms: _10  and  _12
REMARK    6  A    between atoms: _12  and  _13
REMARK    7  A    between atoms: _12  and  _15
REMARK    8  A    between atoms: _15  and  _16
REMARK    9  A    between atoms: _16  and  _17
REMARK   10  A    between atoms: _20  and  _22
REMARK   11  A    between atoms: _22  and  _23
REMARK   12  A    between atoms: _25  and  _27
REMARK   13  A    between atoms: _27  and  _28
REMARK   14  A    between atoms: _27  and  _30
REMARK   15  A    between atoms: _30  and  _31
REMARK   16  A    between atoms: _34  and  _36
REMARK   17  A    between atoms: _36  and  _37
REMARK   18  A    between atoms: _36  and  _39
REMARK   19  A    between atoms: _39  and  _40
REMARK   20  A    between atoms: _40  and  _41
REMARK   21  A    between atoms: _44  and  _46
REMARK   22  A    between atoms: _46  and  _47
REMARK   23  A    between atoms: _49  and  _51
REMARK   24  A    between atoms: _51  and  _52
REMARK   25  A    between atoms: _55  and  _57
REMARK   26  A    between atoms: _57  and  _58
REMARK   27  A    between atoms: _60  and  _62
REMARK   28  A    between atoms: _62  and  _63
REMARK   29  A    between atoms: _62  and  _65
REMARK   30  A    between atoms: _65  and  _66
REMARK   31  A    between atoms: _66  and  _67
REMARK   32  A    between atoms: _67  and  _68
REMARK   33  A    between atoms: _68  and  _69
REMARK   34  A    between atoms: _73  and  _75
REMARK   35  A    between atoms: _75  and  _76
REMARK   36  A    between atoms: _75  and  _78
REMARK   37  A    between atoms: _78  and  _79
REMARK   38  A    between atoms: _82  and  _84
REMARK   39  A    between atoms: _84  and  _85
REMARK   40  A    between atoms: _84  and  _87
REMARK   41  A    between atoms: _87  and  _88
REMARK   42  A    between atoms: _91  and  _93
REMARK   43  A    between atoms: _93  and  _94
REMARK   44  A    between atoms: _97  and  _99
REMARK   45  A    between atoms: _99  and  _100
REMARK   46  A    between atoms: _99  and  _102
REMARK   47  A    between atoms: _102  and  _103
REMARK   48  A    between atoms: _103  and  _104
REMARK   49  A    between atoms: _104  and  _105
REMARK   50  A    between atoms: _114  and  _116
REMARK   51  A    between atoms: _116  and  _117
REMARK   52  A    between atoms: _116  and  _119
REMARK   53  A    between atoms: _119  and  _120
REMARK   54  A    between atoms: _125  and  _127
REMARK   55  A    between atoms: _127  and  _128
REMARK   56  A    between atoms: _127  and  _130
REMARK   57  A    between atoms: _130  and  _131
REMARK   58  A    between atoms: _131  and  _132
REMARK   59  A    between atoms: _132  and  _133
REMARK   60  A    between atoms: _142  and  _144
REMARK   61  A    between atoms: _144  and  _145
REMARK   62  A    between atoms: _144  and  _147
REMARK   63  A    between atoms: _147  and  _148
REMARK   64  A    between atoms: _148  and  _149
REMARK   65  A    between atoms: _153  and  _154
REMARK   66  A    between atoms: _159  and  _161
REMARK   67  A    between atoms: _161  and  _162
REMARK   68  A    between atoms: _164  and  _166
REMARK   69  A    between atoms: _166  and  _167
REMARK   70  A    between atoms: _166  and  _169
REMARK   71  A    between atoms: _169  and  _170
REMARK   72  A    between atoms: _170  and  _171
REMARK   73  A    between atoms: _171  and  _172
REMARK   74  A    between atoms: _181  and  _183
REMARK   75  A    between atoms: _183  and  _184
REMARK   76  A    between atoms: _183  and  _186
REMARK   77  A    between atoms: _186  and  _187
REMARK   78  A    between atoms: _190  and  _192
REMARK   79  A    between atoms: _192  and  _193
REMARK   80  A    between atoms: _192  and  _195
REMARK   81  A    between atoms: _195  and  _196
REMARK   82  A    between atoms: _199  and  _201
REMARK   83  A    between atoms: _201  and  _202
REMARK   84  A    between atoms: _201  and  _204
REMARK   85  A    between atoms: _204  and  _205
REMARK   86  A    between atoms: _205  and  _206
REMARK   87  A    between atoms: _209  and  _211
REMARK   88  A    between atoms: _211  and  _212
REMARK   89  A    between atoms: _211  and  _214
REMARK   90  A    between atoms: _217  and  _219
REMARK   91  A    between atoms: _219  and  _220
REMARK   92  A    between atoms: _219  and  _222
REMARK   93  A    between atoms: _222  and  _223
REMARK   94  A    between atoms: _223  and  _224
REMARK   95  A    between atoms: _226  and  _228
REMARK   96  A    between atoms: _228  and  _229
REMARK   97  A    between atoms: _228  and  _231
REMARK   98  A    between atoms: _231  and  _232
REMARK   99  A    between atoms: _238  and  _240
REMARK  100  A    between atoms: _240  and  _241
REMARK  101  A    between atoms: _240  and  _243
REMARK  102  A    between atoms: _243  and  _244
REMARK  103  A    between atoms: _249  and  _250
REMARK  104  A    between atoms: _252  and  _254
REMARK  105  A    between atoms: _254  and  _255
REMARK  106  A    between atoms: _258  and  _260
REMARK  107  A    between atoms: _260  and  _261
REMARK  108  A    between atoms: _260  and  _263
REMARK  109  A    between atoms: _263  and  _264
REMARK  110  A    between atoms: _264  and  _265
REMARK  111  A    between atoms: _265  and  _266
REMARK  112  A    between atoms: _275  and  _277
REMARK  113  A    between atoms: _277  and  _278
REMARK  114  A    between atoms: _277  and  _280
REMARK  115  A    between atoms: _280  and  _281
REMARK  116  A    between atoms: _284  and  _286
REMARK  117  A    between atoms: _286  and  _287
REMARK  118  A    between atoms: _286  and  _289
REMARK  119  A    between atoms: _289  and  _290
REMARK  120  A    between atoms: _290  and  _291
REMARK  121  A    between atoms: _291  and  _292
REMARK  122  A    between atoms: _301  and  _303
REMARK  123  A    between atoms: _303  and  _304
REMARK  124  A    between atoms: _303  and  _306
REMARK  125  A    between atoms: _306  and  _307
REMARK  126  A    between atoms: _312  and  _314
REMARK  127  A    between atoms: _314  and  _315
REMARK  128  A    between atoms: _314  and  _317
REMARK  129  A    between atoms: _317  and  _318
REMARK  130  A    between atoms: _321  and  _323
REMARK  131  A    between atoms: _323  and  _324
REMARK  132  A    between atoms: _323  and  _326
REMARK  133  A    between atoms: _326  and  _327
REMARK  134  A    between atoms: _330  and  _332
REMARK  135  A    between atoms: _332  and  _333
REMARK  136  A    between atoms: _332  and  _335
REMARK  137  A    between atoms: _335  and  _336
REMARK  138  A    between atoms: _338  and  _340
REMARK  139  A    between atoms: _340  and  _341
REMARK  140  A    between atoms: _340  and  _343
REMARK  141  A    between atoms: _343  and  _344
REMARK  142  A    between atoms: _347  and  _349
REMARK  143  A    between atoms: _349  and  _350
REMARK  144  A    between atoms: _349  and  _352
REMARK  145  A    between atoms: _352  and  _353
REMARK  146  A    between atoms: _353  and  _354
REMARK  147  A    between atoms: _359  and  _361
REMARK  148  A    between atoms: _361  and  _362
REMARK  149  A    between atoms: _365  and  _367
REMARK  150  A    between atoms: _367  and  _368
REMARK  151  A    between atoms: _367  and  _370
REMARK  152  A    between atoms: _370  and  _371
REMARK  153  A    between atoms: _376  and  _377
REMARK  154  A    between atoms: _379  and  _381
REMARK  155  A    between atoms: _381  and  _382
REMARK  156  A    between atoms: _381  and  _384
REMARK  157  A    between atoms: _384  and  _385
REMARK  158  A    between atoms: _385  and  _386
REMARK  159  A    between atoms: _391  and  _393
REMARK  160  A    between atoms: _393  and  _394
REMARK  161  A    between atoms: _396  and  _398
REMARK  162  A    between atoms: _398  and  _399
REMARK  163  A    between atoms: _401  and  _403
REMARK  164  A    between atoms: _403  and  _404
REMARK  165  A    between atoms: _403  and  _406
REMARK  166  A    between atoms: _406  and  _407
REMARK  167  A    between atoms: _407  and  _408
REMARK  168  A    between atoms: _408  and  _409
REMARK  169  A    between atoms: _418  and  _420
REMARK  170  A    between atoms: _420  and  _421
REMARK  171  A    between atoms: _420  and  _423
REMARK  172  A    between atoms: _423  and  _424
REMARK  173  A    between atoms: _427  and  _429
REMARK  174  A    between atoms: _429  and  _430
REMARK  175  A    between atoms: _429  and  _432
REMARK  176  A    between atoms: _435  and  _437
REMARK  177  A    between atoms: _437  and  _438
REMARK  178  A    between atoms: _437  and  _440
REMARK  179  A    between atoms: _443  and  _445
REMARK  180  A    between atoms: _445  and  _446
REMARK  181  A    between atoms: _448  and  _450
REMARK  182  A    between atoms: _450  and  _451
REMARK  183  A    between atoms: _450  and  _453
REMARK  184  A    between atoms: _453  and  _454
REMARK  185  A    between atoms: _454  and  _455
REMARK  186  A    between atoms: _455  and  _456
REMARK  187  A    between atoms: _456  and  _457
REMARK  188  A    between atoms: _461  and  _463
REMARK  189  A    between atoms: _463  and  _464
REMARK  190  A    between atoms: _463  and  _466
REMARK  191  A    between atoms: _466  and  _467
REMARK  192  A    between atoms: _467  and  _468
REMARK  193  A    between atoms: _468  and  _469
REMARK  194  A    between atoms: _478  and  _480
REMARK  195  A    between atoms: _480  and  _481
REMARK  196  A    between atoms: _484  and  _486
REMARK  197  A    between atoms: _486  and  _487
REMARK  198  A    between atoms: _486  and  _489
REMARK  199  A    between atoms: _489  and  _490
REMARK  200  A    between atoms: _490  and  _491
REMARK  201  A    between atoms: _491  and  _492
REMARK  202  A    between atoms: _501  and  _503
REMARK  203  A    between atoms: _503  and  _504
REMARK  204  A    between atoms: _507  and  _509
REMARK  205  A    between atoms: _509  and  _510
REMARK  206  A    between atoms: _509  and  _512
REMARK  207  A    between atoms: _512  and  _513
REMARK  208  A    between atoms: _513  and  _514
REMARK  209  A    between atoms: _514  and  _515
REMARK  210  A    between atoms: _524  and  _526
REMARK  211  A    between atoms: _526  and  _527
REMARK  212  A    between atoms: _529  and  _531
REMARK  213  A    between atoms: _531  and  _532
REMARK  214  A    between atoms: _531  and  _534
REMARK  215  A    between atoms: _534  and  _535
REMARK  216  A    between atoms: _535  and  _536
REMARK  217  A    between atoms: _539  and  _541
REMARK  218  A    between atoms: _541  and  _542
REMARK  219  A    between atoms: _541  and  _544
REMARK  220  A    between atoms: _544  and  _545
REMARK  221  A    between atoms: _548  and  _550
REMARK  222  A    between atoms: _550  and  _551
REMARK  223  A    between atoms: _550  and  _553
REMARK  224  A    between atoms: _553  and  _554
REMARK  225  A    between atoms: _557  and  _559
REMARK  226  A    between atoms: _559  and  _560
REMARK  227  A    between atoms: _559  and  _562
REMARK  228  A    between atoms: _562  and  _563
REMARK  229  A    between atoms: _563  and  _564
REMARK  230  A    between atoms: _564  and  _565
REMARK  231  A    between atoms: _574  and  _576
REMARK  232  A    between atoms: _576  and  _577
REMARK  233  A    between atoms: _576  and  _579
REMARK  234  A    between atoms: _579  and  _580
REMARK  235  A    between atoms: _583  and  _585
REMARK  236  A    between atoms: _585  and  _586
REMARK  237  A    between atoms: _585  and  _588
REMARK  238  A    between atoms: _588  and  _589
REMARK  239  A    between atoms: _589  and  _590
REMARK  240  A    between atoms: _593  and  _595
REMARK  241  A    between atoms: _595  and  _596
REMARK  242  A    between atoms: _595  and  _598
REMARK  243  A    between atoms: _598  and  _599
REMARK  244  A    between atoms: _599  and  _600
REMARK  245  A    between atoms: _605  and  _607
REMARK  246  A    between atoms: _607  and  _608
REMARK  247  A    between atoms: _607  and  _610
REMARK  248  A    between atoms: _610  and  _611
REMARK  249  A    between atoms: _611  and  _612
REMARK  250  A    between atoms: _615  and  _617
REMARK  251  A    between atoms: _617  and  _618
REMARK  252  A    between atoms: _617  and  _620
REMARK  253  A    between atoms: _620  and  _621
REMARK  254  A    between atoms: _627  and  _629
REMARK  255  A    between atoms: _629  and  _630
REMARK  256  A    between atoms: _629  and  _632
REMARK  257  A    between atoms: _632  and  _633
REMARK  258  A    between atoms: _639  and  _641
REMARK  259  A    between atoms: _641  and  _642
REMARK  260  A    between atoms: _641  and  _644
REMARK  261  A    between atoms: _644  and  _645
REMARK  262  A    between atoms: _648  and  _650
REMARK  263  A    between atoms: _650  and  _651
REMARK  264  A    between atoms: _650  and  _653
REMARK  265  A    between atoms: _653  and  _654
REMARK  266  A    between atoms: _659  and  _660
REMARK  267  A    between atoms: _662  and  _664
REMARK  268  A    between atoms: _664  and  _665
REMARK  269  A    between atoms: _668  and  _670
REMARK  270  A    between atoms: _670  and  _671
REMARK  271  A    between atoms: _670  and  _673
REMARK  272  A    between atoms: _673  and  _674
REMARK  273  A    between atoms: _674  and  _675
REMARK  274  A    between atoms: _681  and  _682
REMARK  275  A    between atoms: _687  and  _689
REMARK  276  A    between atoms: _689  and  _690
REMARK  277  A    between atoms: _689  and  _692
REMARK  278  A    between atoms: _692  and  _693
REMARK  279  A    between atoms: _696  and  _698
REMARK  280  A    between atoms: _698  and  _699
REMARK  281  A    between atoms: _698  and  _701
REMARK  282  A    between atoms: _701  and  _702
REMARK  283  A    between atoms: _702  and  _703
REMARK  284  A    between atoms: _706  and  _708
REMARK  285  A    between atoms: _708  and  _709
REMARK  286  A    between atoms: _708  and  _711
REMARK                            x       y       z     vdW  Elec       q    Type
REMARK                         _______ _______ _______ _____ _____    ______ ____
ROOT
ATOM      1  O   HOH     1      24.549 119.182  24.815  0.00  0.00    +0.000 OA
ENDROOT
TORSDOF 0
REMARK  Name = ../refined-set-2016/4tmk/4tmk_pocket.pdb
REMARK  286 active torsions:
REMARK  status: ('A' for Active; 'I' for Inactive)
REMARK    1  A    between atoms: _1  and  _3
REMARK    2  A    between atoms: _3  and  _4
REMARK    3  A    between atoms: _3  and  _6
REMARK    4  A    between atoms: _6  and  _7
REMARK    5  A    between atoms: _10  and  _12
REMARK    6  A    between atoms: _12  and  _13
REMARK    7  A    between atoms: _12  and  _15
REMARK    8  A    between atoms: _15  and  _16
REMARK    9  A    between atoms: _16  and  _17
REMARK   10  A    between atoms: _20  and  _22
REMARK   11  A    between atoms: _22  and  _23
REMARK   12  A    between atoms: _25  and  _27
REMARK   13  A    between atoms: _27  and  _28
REMARK   14  A    between atoms: _27  and  _30
REMARK   15  A    between atoms: _30  and  _31
REMARK   16  A    between atoms: _34  and  _36
REMARK   17  A    between atoms: _36  and  _37
REMARK   18  A    between atoms: _36  and  _39
REMARK   19  A    between atoms: _39  and  _40
REMARK   20  A    between atoms: _40  and  _41
REMARK   21  A    between atoms: _44  and  _46
REMARK   22  A    between atoms: _46  and  _47
REMARK   23  A    between atoms: _49  and  _51
REMARK   24  A    between atoms: _51  and  _52
REMARK   25  A    between atoms: _55  and  _57
REMARK   26  A    between atoms: _57  and  _58
REMARK   27  A    between atoms: _60  and  _62
REMARK   28  A    between atoms: _62  and  _63
REMARK   29  A    between atoms: _62  and  _65
REMARK   30  A    between atoms: _65  and  _66
REMARK   31  A    between atoms: _66  and  _67
REMARK   32  A    between atoms: _67  and  _68
REMARK   33  A    between atoms: _68  and  _69
REMARK   34  A    between atoms: _73  and  _75
REMARK   35  A    between atoms: _75  and  _76
REMARK   36  A    between atoms: _75  and  _78
REMARK   37  A    between atoms: _78  and  _79
REMARK   38  A    between atoms: _82  and  _84
REMARK   39  A    between atoms: _84  and  _85
REMARK   40  A    between atoms: _84  and  _87
REMARK   41  A    between atoms: _87  and  _88
REMARK   42  A    between atoms: _91  and  _93
REMARK   43  A    between atoms: _93  and  _94
REMARK   44  A    between atoms: _97  and  _99
REMARK   45  A    between atoms: _99  and  _100
REMARK   46  A    between atoms: _99  and  _102
REMARK   47  A    between atoms: _102  and  _103
REMARK   48  A    between atoms: _103  and  _104
REMARK   49  A    between atoms: _104  and  _105
REMARK   50  A    between atoms: _114  and  _116
REMARK   51  A    between atoms: _116  and  _117
REMARK   52  A    between atoms: _116  and  _119
REMARK   53  A    between atoms: _119  and  _120
REMARK   54  A    between atoms: _125  and  _127
REMARK   55  A    between atoms: _127  and  _128
REMARK   56  A    between atoms: _127  and  _130
REMARK   57  A    between atoms: _130  and  _131
REMARK   58  A    between atoms: _131  and  _132
REMARK   59  A    between atoms: _132  and  _133
REMARK   60  A    between atoms: _142  and  _144
REMARK   61  A    between atoms: _144  and  _145
REMARK   62  A    between atoms: _144  and  _147
REMARK   63  A    between atoms: _147  and  _148
REMARK   64  A    between atoms: _148  and  _149
REMARK   65  A    between atoms: _153  and  _154
REMARK   66  A    between atoms: _159  and  _161
REMARK   67  A    between atoms: _161  and  _162
REMARK   68  A    between atoms: _164  and  _166
REMARK   69  A    between atoms: _166  and  _167
REMARK   70  A    between atoms: _166  and  _169
REMARK   71  A    between atoms: _169  and  _170
REMARK   72  A    between atoms: _170  and  _171
REMARK   73  A    between atoms: _171  and  _172
REMARK   74  A    between atoms: _181  and  _183
REMARK   75  A    between atoms: _183  and  _184
REMARK   76  A    between atoms: _183  and  _186
REMARK   77  A    between atoms: _186  and  _187
REMARK   78  A    between atoms: _190  and  _192
REMARK   79  A    between atoms: _192  and  _193
REMARK   80  A    between atoms: _192  and  _195
REMARK   81  A    between atoms: _195  and  _196
REMARK   82  A    between atoms: _199  and  _201
REMARK   83  A    between atoms: _201  and  _202
REMARK   84  A    between atoms: _201  and  _204
REMARK   85  A    between atoms: _204  and  _205
REMARK   86  A    between atoms: _205  and  _206
REMARK   87  A    between atoms: _209  and  _211
REMARK   88  A    between atoms: _211  and  _212
REMARK   89  A    between atoms: _211  and  _214
REMARK   90  A    between atoms: _217  and  _219
REMARK   91  A    between atoms: _219  and  _220
REMARK   92  A    between atoms: _219  and  _222
REMARK   93  A    between atoms: _222  and  _223
REMARK   94  A    between atoms: _223  and  _224
REMARK   95  A    between atoms: _226  and  _228
REMARK   96  A    between atoms: _228  and  _229
REMARK   97  A    between atoms: _228  and  _231
REMARK   98  A    between atoms: _231  and  _232
REMARK   99  A    between atoms: _238  and  _240
REMARK  100  A    between atoms: _240  and  _241
REMARK  101  A    between atoms: _240  and  _243
REMARK  102  A    between atoms: _243  and  _244
REMARK  103  A    between atoms: _249  and  _250
REMARK  104  A    between atoms: _252  and  _254
REMARK  105  A    between atoms: _254  and  _255
REMARK  106  A    between atoms: _258  and  _260
REMARK  107  A    between atoms: _260  and  _261
REMARK  108  A    between atoms: _260  and  _263
REMARK  109  A    between atoms: _263  and  _264
REMARK  110  A    between atoms: _264  and  _265
REMARK  111  A    between atoms: _265  and  _266
REMARK  112  A    between atoms: _275  and  _277
REMARK  113  A    between atoms: _277  and  _278
REMARK  114  A    between atoms: _277  and  _280
REMARK  115  A    between atoms: _280  and  _281
REMARK  116  A    between atoms: _284  and  _286
REMARK  117  A    between atoms: _286  and  _287
REMARK  118  A    between atoms: _286  and  _289
REMARK  119  A    between atoms: _289  and  _290
REMARK  120  A    between atoms: _290  and  _291
REMARK  121  A    between atoms: _291  and  _292
REMARK  122  A    between atoms: _301  and  _303
REMARK  123  A    between atoms: _303  and  _304
REMARK  124  A    between atoms: _303  and  _306
REMARK  125  A    between atoms: _306  and  _307
REMARK  126  A    between atoms: _312  and  _314
REMARK  127  A    between atoms: _314  and  _315
REMARK  128  A    between atoms: _314  and  _317
REMARK  129  A    between atoms: _317  and  _318
REMARK  130  A    between atoms: _321  and  _323
REMARK  131  A    between atoms: _323  and  _324
REMARK  132  A    between atoms: _323  and  _326
REMARK  133  A    between atoms: _326  and  _327
REMARK  134  A    between atoms: _330  and  _332
REMARK  135  A    between atoms: _332  and  _333
REMARK  136  A    between atoms: _332  and  _335
REMARK  137  A    between atoms: _335  and  _336
REMARK  138  A    between atoms: _338  and  _340
REMARK  139  A    between atoms: _340  and  _341
REMARK  140  A    between atoms: _340  and  _343
REMARK  141  A    between atoms: _343  and  _344
REMARK  142  A    between atoms: _347  and  _349
REMARK  143  A    between atoms: _349  and  _350
REMARK  144  A    between atoms: _349  and  _352
REMARK  145  A    between atoms: _352  and  _353
REMARK  146  A    between atoms: _353  and  _354
REMARK  147  A    between atoms: _359  and  _361
REMARK  148  A    between atoms: _361  and  _362
REMARK  149  A    between atoms: _365  and  _367
REMARK  150  A    between atoms: _367  and  _368
REMARK  151  A    between atoms: _367  and  _370
REMARK  152  A    between atoms: _370  and  _371
REMARK  153  A    between atoms: _376  and  _377
REMARK  154  A    between atoms: _379  and  _381
REMARK  155  A    between atoms: _381  and  _382
REMARK  156  A    between atoms: _381  and  _384
REMARK  157  A    between atoms: _384  and  _385
REMARK  158  A    between atoms: _385  and  _386
REMARK  159  A    between atoms: _391  and  _393
REMARK  160  A    between atoms: _393  and  _394
REMARK  161  A    between atoms: _396  and  _398
REMARK  162  A    between atoms: _398  and  _399
REMARK  163  A    between atoms: _401  and  _403
REMARK  164  A    between atoms: _403  and  _404
REMARK  165  A    between atoms: _403  and  _406
REMARK  166  A    between atoms: _406  and  _407
REMARK  167  A    between atoms: _407  and  _408
REMARK  168  A    between atoms: _408  and  _409
REMARK  169  A    between atoms: _418  and  _420
REMARK  170  A    between atoms: _420  and  _421
REMARK  171  A    between atoms: _420  and  _423
REMARK  172  A    between atoms: _423  and  _424
REMARK  173  A    between atoms: _427  and  _429
REMARK  174  A    between atoms: _429  and  _430
REMARK  175  A    between atoms: _429  and  _432
REMARK  176  A    between atoms: _435  and  _437
REMARK  177  A    between atoms: _437  and  _438
REMARK  178  A    between atoms: _437  and  _440
REMARK  179  A    between atoms: _443  and  _445
REMARK  180  A    between atoms: _445  and  _446
REMARK  181  A    between atoms: _448  and  _450
REMARK  182  A    between atoms: _450  and  _451
REMARK  183  A    between atoms: _450  and  _453
REMARK  184  A    between atoms: _453  and  _454
REMARK  185  A    between atoms: _454  and  _455
REMARK  186  A    between atoms: _455  and  _456
REMARK  187  A    between atoms: _456  and  _457
REMARK  188  A    between atoms: _461  and  _463
REMARK  189  A    between atoms: _463  and  _464
REMARK  190  A    between atoms: _463  and  _466
REMARK  191  A    between atoms: _466  and  _467
REMARK  192  A    between atoms: _467  and  _468
REMARK  193  A    between atoms: _468  and  _469
REMARK  194  A    between atoms: _478  and  _480
REMARK  195  A    between atoms: _480  and  _481
REMARK  196  A    between atoms: _484  and  _486
REMARK  197  A    between atoms: _486  and  _487
REMARK  198  A    between atoms: _486  and  _489
REMARK  199  A    between atoms: _489  and  _490
REMARK  200  A    between atoms: _490  and  _491
REMARK  201  A    between atoms: _491  and  _492
REMARK  202  A    between atoms: _501  and  _503
REMARK  203  A    between atoms: _503  and  _504
REMARK  204  A    between atoms: _507  and  _509
REMARK  205  A    between atoms: _509  and  _510
REMARK  206  A    between atoms: _509  and  _512
REMARK  207  A    between atoms: _512  and  _513
REMARK  208  A    between atoms: _513  and  _514
REMARK  209  A    between atoms: _514  and  _515
REMARK  210  A    between atoms: _524  and  _526
REMARK  211  A    between atoms: _526  and  _527
REMARK  212  A    between atoms: _529  and  _531
REMARK  213  A    between atoms: _531  and  _532
REMARK  214  A    between atoms: _531  and  _534
REMARK  215  A    between atoms: _534  and  _535
REMARK  216  A    between atoms: _535  and  _536
REMARK  217  A    between atoms: _539  and  _541
REMARK  218  A    between atoms: _541  and  _542
REMARK  219  A    between atoms: _541  and  _544
REMARK  220  A    between atoms: _544  and  _545
REMARK  221  A    between atoms: _548  and  _550
REMARK  222  A    between atoms: _550  and  _551
REMARK  223  A    between atoms: _550  and  _553
REMARK  224  A    between atoms: _553  and  _554
REMARK  225  A    between atoms: _557  and  _559
REMARK  226  A    between atoms: _559  and  _560
REMARK  227  A    between atoms: _559  and  _562
REMARK  228  A    between atoms: _562  and  _563
REMARK  229  A    between atoms: _563  and  _564
REMARK  230  A    between atoms: _564  and  _565
REMARK  231  A    between atoms: _574  and  _576
REMARK  232  A    between atoms: _576  and  _577
REMARK  233  A    between atoms: _576  and  _579
REMARK  234  A    between atoms: _579  and  _580
REMARK  235  A    between atoms: _583  and  _585
REMARK  236  A    between atoms: _585  and  _586
REMARK  237  A    between atoms: _585  and  _588
REMARK  238  A    between atoms: _588  and  _589
REMARK  239  A    between atoms: _589  and  _590
REMARK  240  A    between atoms: _593  and  _595
REMARK  241  A    between atoms: _595  and  _596
REMARK  242  A    between atoms: _595  and  _598
REMARK  243  A    between atoms: _598  and  _599
REMARK  244  A    between atoms: _599  and  _600
REMARK  245  A    between atoms: _605  and  _607
REMARK  246  A    between atoms: _607  and  _608
REMARK  247  A    between atoms: _607  and  _610
REMARK  248  A    between atoms: _610  and  _611
REMARK  249  A    between atoms: _611  and  _612
REMARK  250  A    between atoms: _615  and  _617
REMARK  251  A    between atoms: _617  and  _618
REMARK  252  A    between atoms: _617  and  _620
REMARK  253  A    between atoms: _620  and  _621
REMARK  254  A    between atoms: _627  and  _629
REMARK  255  A    between atoms: _629  and  _630
REMARK  256  A    between atoms: _629  and  _632
REMARK  257  A    between atoms: _632  and  _633
REMARK  258  A    between atoms: _639  and  _641
REMARK  259  A    between atoms: _641  and  _642
REMARK  260  A    between atoms: _641  and  _644
REMARK  261  A    between atoms: _644  and  _645
REMARK  262  A    between atoms: _648  and  _650
REMARK  263  A    between atoms: _650  and  _651
REMARK  264  A    between atoms: _650  and  _653
REMARK  265  A    between atoms: _653  and  _654
REMARK  266  A    between atoms: _659  and  _660
REMARK  267  A    between atoms: _662  and  _664
REMARK  268  A    between atoms: _664  and  _665
REMARK  269  A    between atoms: _668  and  _670
REMARK  270  A    between atoms: _670  and  _671
REMARK  271  A    between atoms: _670  and  _673
REMARK  272  A    between atoms: _673  and  _674
REMARK  273  A    between atoms: _674  and  _675
REMARK  274  A    between atoms: _681  and  _682
REMARK  275  A    between atoms: _687  and  _689
REMARK  276  A    between atoms: _689  and  _690
REMARK  277  A    between atoms: _689  and  _692
REMARK  278  A    between atoms: _692  and  _693
REMARK  279  A    between atoms: _696  and  _698
REMARK  280  A    between atoms: _698  and  _699
REMARK  281  A    between atoms: _698  and  _701
REMARK  282  A    between atoms: _701  and  _702
REMARK  283  A    between atoms: _702  and  _703
REMARK  284  A    between atoms: _706  and  _708
REMARK  285  A    between atoms: _708  and  _709
REMARK  286  A    between atoms: _708  and  _711
REMARK                            x       y       z     vdW  Elec       q    Type
REMARK                         _______ _______ _______ _____ _____    ______ ____
ROOT
ATOM      1  O   HOH     1      19.311 120.540  23.092  0.00  0.00    +0.000 OA
ENDROOT
TORSDOF 0
REMARK  Name = ../refined-set-2016/4tmk/4tmk_pocket.pdb
REMARK  286 active torsions:
REMARK  status: ('A' for Active; 'I' for Inactive)
REMARK    1  A    between atoms: _1  and  _3
REMARK    2  A    between atoms: _3  and  _4
REMARK    3  A    between atoms: _3  and  _6
REMARK    4  A    between atoms: _6  and  _7
REMARK    5  A    between atoms: _10  and  _12
REMARK    6  A    between atoms: _12  and  _13
REMARK    7  A    between atoms: _12  and  _15
REMARK    8  A    between atoms: _15  and  _16
REMARK    9  A    between atoms: _16  and  _17
REMARK   10  A    between atoms: _20  and  _22
REMARK   11  A    between atoms: _22  and  _23
REMARK   12  A    between atoms: _25  and  _27
REMARK   13  A    between atoms: _27  and  _28
REMARK   14  A    between atoms: _27  and  _30
REMARK   15  A    between atoms: _30  and  _31
REMARK   16  A    between atoms: _34  and  _36
REMARK   17  A    between atoms: _36  and  _37
REMARK   18  A    between atoms: _36  and  _39
REMARK   19  A    between atoms: _39  and  _40
REMARK   20  A    between atoms: _40  and  _41
REMARK   21  A    between atoms: _44  and  _46
REMARK   22  A    between atoms: _46  and  _47
REMARK   23  A    between atoms: _49  and  _51
REMARK   24  A    between atoms: _51  and  _52
REMARK   25  A    between atoms: _55  and  _57
REMARK   26  A    between atoms: _57  and  _58
REMARK   27  A    between atoms: _60  and  _62
REMARK   28  A    between atoms: _62  and  _63
REMARK   29  A    between atoms: _62  and  _65
REMARK   30  A    between atoms: _65  and  _66
REMARK   31  A    between atoms: _66  and  _67
REMARK   32  A    between atoms: _67  and  _68
REMARK   33  A    between atoms: _68  and  _69
REMARK   34  A    between atoms: _73  and  _75
REMARK   35  A    between atoms: _75  and  _76
REMARK   36  A    between atoms: _75  and  _78
REMARK   37  A    between atoms: _78  and  _79
REMARK   38  A    between atoms: _82  and  _84
REMARK   39  A    between atoms: _84  and  _85
REMARK   40  A    between atoms: _84  and  _87
REMARK   41  A    between atoms: _87  and  _88
REMARK   42  A    between atoms: _91  and  _93
REMARK   43  A    between atoms: _93  and  _94
REMARK   44  A    between atoms: _97  and  _99
REMARK   45  A    between atoms: _99  and  _100
REMARK   46  A    between atoms: _99  and  _102
REMARK   47  A    between atoms: _102  and  _103
REMARK   48  A    between atoms: _103  and  _104
REMARK   49  A    between atoms: _104  and  _105
REMARK   50  A    between atoms: _114  and  _116
REMARK   51  A    between atoms: _116  and  _117
REMARK   52  A    between atoms: _116  and  _119
REMARK   53  A    between atoms: _119  and  _120
REMARK   54  A    between atoms: _125  and  _127
REMARK   55  A    between atoms: _127  and  _128
REMARK   56  A    between atoms: _127  and  _130
REMARK   57  A    between atoms: _130  and  _131
REMARK   58  A    between atoms: _131  and  _132
REMARK   59  A    between atoms: _132  and  _133
REMARK   60  A    between atoms: _142  and  _144
REMARK   61  A    between atoms: _144  and  _145
REMARK   62  A    between atoms: _144  and  _147
REMARK   63  A    between atoms: _147  and  _148
REMARK   64  A    between atoms: _148  and  _149
REMARK   65  A    between atoms: _153  and  _154
REMARK   66  A    between atoms: _159  and  _161
REMARK   67  A    between atoms: _161  and  _162
REMARK   68  A    between atoms: _164  and  _166
REMARK   69  A    between atoms: _166  and  _167
REMARK   70  A    between atoms: _166  and  _169
REMARK   71  A    between atoms: _169  and  _170
REMARK   72  A    between atoms: _170  and  _171
REMARK   73  A    between atoms: _171  and  _172
REMARK   74  A    between atoms: _181  and  _183
REMARK   75  A    between atoms: _183  and  _184
REMARK   76  A    between atoms: _183  and  _186
REMARK   77  A    between atoms: _186  and  _187
REMARK   78  A    between atoms: _190  and  _192
REMARK   79  A    between atoms: _192  and  _193
REMARK   80  A    between atoms: _192  and  _195
REMARK   81  A    between atoms: _195  and  _196
REMARK   82  A    between atoms: _199  and  _201
REMARK   83  A    between atoms: _201  and  _202
REMARK   84  A    between atoms: _201  and  _204
REMARK   85  A    between atoms: _204  and  _205
REMARK   86  A    between atoms: _205  and  _206
REMARK   87  A    between atoms: _209  and  _211
REMARK   88  A    between atoms: _211  and  _212
REMARK   89  A    between atoms: _211  and  _214
REMARK   90  A    between atoms: _217  and  _219
REMARK   91  A    between atoms: _219  and  _220
REMARK   92  A    between atoms: _219  and  _222
REMARK   93  A    between atoms: _222  and  _223
REMARK   94  A    between atoms: _223  and  _224
REMARK   95  A    between atoms: _226  and  _228
REMARK   96  A    between atoms: _228  and  _229
REMARK   97  A    between atoms: _228  and  _231
REMARK   98  A    between atoms: _231  and  _232
REMARK   99  A    between atoms: _238  and  _240
REMARK  100  A    between atoms: _240  and  _241
REMARK  101  A    between atoms: _240  and  _243
REMARK  102  A    between atoms: _243  and  _244
REMARK  103  A    between atoms: _249  and  _250
REMARK  104  A    between atoms: _252  and  _254
REMARK  105  A    between atoms: _254  and  _255
REMARK  106  A    between atoms: _258  and  _260
REMARK  107  A    between atoms: _260  and  _261
REMARK  108  A    between atoms: _260  and  _263
REMARK  109  A    between atoms: _263  and  _264
REMARK  110  A    between atoms: _264  and  _265
REMARK  111  A    between atoms: _265  and  _266
REMARK  112  A    between atoms: _275  and  _277
REMARK  113  A    between atoms: _277  and  _278
REMARK  114  A    between atoms: _277  and  _280
REMARK  115  A    between atoms: _280  and  _281
REMARK  116  A    between atoms: _284  and  _286
REMARK  117  A    between atoms: _286  and  _287
REMARK  118  A    between atoms: _286  and  _289
REMARK  119  A    between atoms: _289  and  _290
REMARK  120  A    between atoms: _290  and  _291
REMARK  121  A    between atoms: _291  and  _292
REMARK  122  A    between atoms: _301  and  _303
REMARK  123  A    between atoms: _303  and  _304
REMARK  124  A    between atoms: _303  and  _306
REMARK  125  A    between atoms: _306  and  _307
REMARK  126  A    between atoms: _312  and  _314
REMARK  127  A    between atoms: _314  and  _315
REMARK  128  A    between atoms: _314  and  _317
REMARK  129  A    between atoms: _317  and  _318
REMARK  130  A    between atoms: _321  and  _323
REMARK  131  A    between atoms: _323  and  _324
REMARK  132  A    between atoms: _323  and  _326
REMARK  133  A    between atoms: _326  and  _327
REMARK  134  A    between atoms: _330  and  _332
REMARK  135  A    between atoms: _332  and  _333
REMARK  136  A    between atoms: _332  and  _335
REMARK  137  A    between atoms: _335  and  _336
REMARK  138  A    between atoms: _338  and  _340
REMARK  139  A    between atoms: _340  and  _341
REMARK  140  A    between atoms: _340  and  _343
REMARK  141  A    between atoms: _343  and  _344
REMARK  142  A    between atoms: _347  and  _349
REMARK  143  A    between atoms: _349  and  _350
REMARK  144  A    between atoms: _349  and  _352
REMARK  145  A    between atoms: _352  and  _353
REMARK  146  A    between atoms: _353  and  _354
REMARK  147  A    between atoms: _359  and  _361
REMARK  148  A    between atoms: _361  and  _362
REMARK  149  A    between atoms: _365  and  _367
REMARK  150  A    between atoms: _367  and  _368
REMARK  151  A    between atoms: _367  and  _370
REMARK  152  A    between atoms: _370  and  _371
REMARK  153  A    between atoms: _376  and  _377
REMARK  154  A    between atoms: _379  and  _381
REMARK  155  A    between atoms: _381  and  _382
REMARK  156  A    between atoms: _381  and  _384
REMARK  157  A    between atoms: _384  and  _385
REMARK  158  A    between atoms: _385  and  _386
REMARK  159  A    between atoms: _391  and  _393
REMARK  160  A    between atoms: _393  and  _394
REMARK  161  A    between atoms: _396  and  _398
REMARK  162  A    between atoms: _398  and  _399
REMARK  163  A    between atoms: _401  and  _403
REMARK  164  A    between atoms: _403  and  _404
REMARK  165  A    between atoms: _403  and  _406
REMARK  166  A    between atoms: _406  and  _407
REMARK  167  A    between atoms: _407  and  _408
REMARK  168  A    between atoms: _408  and  _409
REMARK  169  A    between atoms: _418  and  _420
REMARK  170  A    between atoms: _420  and  _421
REMARK  171  A    between atoms: _420  and  _423
REMARK  172  A    between atoms: _423  and  _424
REMARK  173  A    between atoms: _427  and  _429
REMARK  174  A    between atoms: _429  and  _430
REMARK  175  A    between atoms: _429  and  _432
REMARK  176  A    between atoms: _435  and  _437
REMARK  177  A    between atoms: _437  and  _438
REMARK  178  A    between atoms: _437  and  _440
REMARK  179  A    between atoms: _443  and  _445
REMARK  180  A    between atoms: _445  and  _446
REMARK  181  A    between atoms: _448  and  _450
REMARK  182  A    between atoms: _450  and  _451
REMARK  183  A    between atoms: _450  and  _453
REMARK  184  A    between atoms: _453  and  _454
REMARK  185  A    between atoms: _454  and  _455
REMARK  186  A    between atoms: _455  and  _456
REMARK  187  A    between atoms: _456  and  _457
REMARK  188  A    between atoms: _461  and  _463
REMARK  189  A    between atoms: _463  and  _464
REMARK  190  A    between atoms: _463  and  _466
REMARK  191  A    between atoms: _466  and  _467
REMARK  192  A    between atoms: _467  and  _468
REMARK  193  A    between atoms: _468  and  _469
REMARK  194  A    between atoms: _478  and  _480
REMARK  195  A    between atoms: _480  and  _481
REMARK  196  A    between atoms: _484  and  _486
REMARK  197  A    between atoms: _486  and  _487
REMARK  198  A    between atoms: _486  and  _489
REMARK  199  A    between atoms: _489  and  _490
REMARK  200  A    between atoms: _490  and  _491
REMARK  201  A    between atoms: _491  and  _492
REMARK  202  A    between atoms: _501  and  _503
REMARK  203  A    between atoms: _503  and  _504
REMARK  204  A    between atoms: _507  and  _509
REMARK  205  A    between atoms: _509  and  _510
REMARK  206  A    between atoms: _509  and  _512
REMARK  207  A    between atoms: _512  and  _513
REMARK  208  A    between atoms: _513  and  _514
REMARK  209  A    between atoms: _514  and  _515
REMARK  210  A    between atoms: _524  and  _526
REMARK  211  A    between atoms: _526  and  _527
REMARK  212  A    between atoms: _529  and  _531
REMARK  213  A    between atoms: _531  and  _532
REMARK  214  A    between atoms: _531  and  _534
REMARK  215  A    between atoms: _534  and  _535
REMARK  216  A    between atoms: _535  and  _536
REMARK  217  A    between atoms: _539  and  _541
REMARK  218  A    between atoms: _541  and  _542
REMARK  219  A    between atoms: _541  and  _544
REMARK  220  A    between atoms: _544  and  _545
REMARK  221  A    between atoms: _548  and  _550
REMARK  222  A    between atoms: _550  and  _551
REMARK  223  A    between atoms: _550  and  _553
REMARK  224  A    between atoms: _553  and  _554
REMARK  225  A    between atoms: _557  and  _559
REMARK  226  A    between atoms: _559  and  _560
REMARK  227  A    between atoms: _559  and  _562
REMARK  228  A    between atoms: _562  and  _563
REMARK  229  A    between atoms: _563  and  _564
REMARK  230  A    between atoms: _564  and  _565
REMARK  231  A    between atoms: _574  and  _576
REMARK  232  A    between atoms: _576  and  _577
REMARK  233  A    between atoms: _576  and  _579
REMARK  234  A    between atoms: _579  and  _580
REMARK  235  A    between atoms: _583  and  _585
REMARK  236  A    between atoms: _585  and  _586
REMARK  237  A    between atoms: _585  and  _588
REMARK  238  A    between atoms: _588  and  _589
REMARK  239  A    between atoms: _589  and  _590
REMARK  240  A    between atoms: _593  and  _595
REMARK  241  A    between atoms: _595  and  _596
REMARK  242  A    between atoms: _595  and  _598
REMARK  243  A    between atoms: _598  and  _599
REMARK  244  A    between atoms: _599  and  _600
REMARK  245  A    between atoms: _605  and  _607
REMARK  246  A    between atoms: _607  and  _608
REMARK  247  A    between atoms: _607  and  _610
REMARK  248  A    between atoms: _610  and  _611
REMARK  249  A    between atoms: _611  and  _612
REMARK  250  A    between atoms: _615  and  _617
REMARK  251  A    between atoms: _617  and  _618
REMARK  252  A    between atoms: _617  and  _620
REMARK  253  A    between atoms: _620  and  _621
REMARK  254  A    between atoms: _627  and  _629
REMARK  255  A    between atoms: _629  and  _630
REMARK  256  A    between atoms: _629  and  _632
REMARK  257  A    between atoms: _632  and  _633
REMARK  258  A    between atoms: _639  and  _641
REMARK  259  A    between atoms: _641  and  _642
REMARK  260  A    between atoms: _641  and  _644
REMARK  261  A    between atoms: _644  and  _645
REMARK  262  A    between atoms: _648  and  _650
REMARK  263  A    between atoms: _650  and  _651
REMARK  264  A    between atoms: _650  and  _653
REMARK  265  A    between atoms: _653  and  _654
REMARK  266  A    between atoms: _659  and  _660
REMARK  267  A    between atoms: _662  and  _664
REMARK  268  A    between atoms: _664  and  _665
REMARK  269  A    between atoms: _668  and  _670
REMARK  270  A    between atoms: _670  and  _671
REMARK  271  A    between atoms: _670  and  _673
REMARK  272  A    between atoms: _673  and  _674
REMARK  273  A    between atoms: _674  and  _675
REMARK  274  A    between atoms: _681  and  _682
REMARK  275  A    between atoms: _687  and  _689
REMARK  276  A    between atoms: _689  and  _690
REMARK  277  A    between atoms: _689  and  _692
REMARK  278  A    between atoms: _692  and  _693
REMARK  279  A    between atoms: _696  and  _698
REMARK  280  A    between atoms: _698  and  _699
REMARK  281  A    between atoms: _698  and  _701
REMARK  282  A    between atoms: _701  and  _702
REMARK  283  A    between atoms: _702  and  _703
REMARK  284  A    between atoms: _706  and  _708
REMARK  285  A    between atoms: _708  and  _709
REMARK  286  A    between atoms: _708  and  _711
REMARK                            x       y       z     vdW  Elec       q    Type
REMARK                         _______ _______ _______ _____ _____    ______ ____
ROOT
ATOM      1  O   HOH     1      23.265  97.539   8.152  0.00  0.00    +0.000 OA
ENDROOT
TORSDOF 0
REMARK  Name = ../refined-set-2016/4tmk/4tmk_pocket.pdb
REMARK  286 active torsions:
REMARK  status: ('A' for Active; 'I' for Inactive)
REMARK    1  A    between atoms: _1  and  _3
REMARK    2  A    between atoms: _3  and  _4
REMARK    3  A    between atoms: _3  and  _6
REMARK    4  A    between atoms: _6  and  _7
REMARK    5  A    between atoms: _10  and  _12
REMARK    6  A    between atoms: _12  and  _13
REMARK    7  A    between atoms: _12  and  _15
REMARK    8  A    between atoms: _15  and  _16
REMARK    9  A    between atoms: _16  and  _17
REMARK   10  A    between atoms: _20  and  _22
REMARK   11  A    between atoms: _22  and  _23
REMARK   12  A    between atoms: _25  and  _27
REMARK   13  A    between atoms: _27  and  _28
REMARK   14  A    between atoms: _27  and  _30
REMARK   15  A    between atoms: _30  and  _31
REMARK   16  A    between atoms: _34  and  _36
REMARK   17  A    between atoms: _36  and  _37
REMARK   18  A    between atoms: _36  and  _39
REMARK   19  A    between atoms: _39  and  _40
REMARK   20  A    between atoms: _40  and  _41
REMARK   21  A    between atoms: _44  and  _46
REMARK   22  A    between atoms: _46  and  _47
REMARK   23  A    between atoms: _49  and  _51
REMARK   24  A    between atoms: _51  and  _52
REMARK   25  A    between atoms: _55  and  _57
REMARK   26  A    between atoms: _57  and  _58
REMARK   27  A    between atoms: _60  and  _62
REMARK   28  A    between atoms: _62  and  _63
REMARK   29  A    between atoms: _62  and  _65
REMARK   30  A    between atoms: _65  and  _66
REMARK   31  A    between atoms: _66  and  _67
REMARK   32  A    between atoms: _67  and  _68
REMARK   33  A    between atoms: _68  and  _69
REMARK   34  A    between atoms: _73  and  _75
REMARK   35  A    between atoms: _75  and  _76
REMARK   36  A    between atoms: _75  and  _78
REMARK   37  A    between atoms: _78  and  _79
REMARK   38  A    between atoms: _82  and  _84
REMARK   39  A    between atoms: _84  and  _85
REMARK   40  A    between atoms: _84  and  _87
REMARK   41  A    between atoms: _87  and  _88
REMARK   42  A    between atoms: _91  and  _93
REMARK   43  A    between atoms: _93  and  _94
REMARK   44  A    between atoms: _97  and  _99
REMARK   45  A    between atoms: _99  and  _100
REMARK   46  A    between atoms: _99  and  _102
REMARK   47  A    between atoms: _102  and  _103
REMARK   48  A    between atoms: _103  and  _104
REMARK   49  A    between atoms: _104  and  _105
REMARK   50  A    between atoms: _114  and  _116
REMARK   51  A    between atoms: _116  and  _117
REMARK   52  A    between atoms: _116  and  _119
REMARK   53  A    between atoms: _119  and  _120
REMARK   54  A    between atoms: _125  and  _127
REMARK   55  A    between atoms: _127  and  _128
REMARK   56  A    between atoms: _127  and  _130
REMARK   57  A    between atoms: _130  and  _131
REMARK   58  A    between atoms: _131  and  _132
REMARK   59  A    between atoms: _132  and  _133
REMARK   60  A    between atoms: _142  and  _144
REMARK   61  A    between atoms: _144  and  _145
REMARK   62  A    between atoms: _144  and  _147
REMARK   63  A    between atoms: _147  and  _148
REMARK   64  A    between atoms: _148  and  _149
REMARK   65  A    between atoms: _153  and  _154
REMARK   66  A    between atoms: _159  and  _161
REMARK   67  A    between atoms: _161  and  _162
REMARK   68  A    between atoms: _164  and  _166
REMARK   69  A    between atoms: _166  and  _167
REMARK   70  A    between atoms: _166  and  _169
REMARK   71  A    between atoms: _169  and  _170
REMARK   72  A    between atoms: _170  and  _171
REMARK   73  A    between atoms: _171  and  _172
REMARK   74  A    between atoms: _181  and  _183
REMARK   75  A    between atoms: _183  and  _184
REMARK   76  A    between atoms: _183  and  _186
REMARK   77  A    between atoms: _186  and  _187
REMARK   78  A    between atoms: _190  and  _192
REMARK   79  A    between atoms: _192  and  _193
REMARK   80  A    between atoms: _192  and  _195
REMARK   81  A    between atoms: _195  and  _196
REMARK   82  A    between atoms: _199  and  _201
REMARK   83  A    between atoms: _201  and  _202
REMARK   84  A    between atoms: _201  and  _204
REMARK   85  A    between atoms: _204  and  _205
REMARK   86  A    between atoms: _205  and  _206
REMARK   87  A    between atoms: _209  and  _211
REMARK   88  A    between atoms: _211  and  _212
REMARK   89  A    between atoms: _211  and  _214
REMARK   90  A    between atoms: _217  and  _219
REMARK   91  A    between atoms: _219  and  _220
REMARK   92  A    between atoms: _219  and  _222
REMARK   93  A    between atoms: _222  and  _223
REMARK   94  A    between atoms: _223  and  _224
REMARK   95  A    between atoms: _226  and  _228
REMARK   96  A    between atoms: _228  and  _229
REMARK   97  A    between atoms: _228  and  _231
REMARK   98  A    between atoms: _231  and  _232
REMARK   99  A    between atoms: _238  and  _240
REMARK  100  A    between atoms: _240  and  _241
REMARK  101  A    between atoms: _240  and  _243
REMARK  102  A    between atoms: _243  and  _244
REMARK  103  A    between atoms: _249  and  _250
REMARK  104  A    between atoms: _252  and  _254
REMARK  105  A    between atoms: _254  and  _255
REMARK  106  A    between atoms: _258  and  _260
REMARK  107  A    between atoms: _260  and  _261
REMARK  108  A    between atoms: _260  and  _263
REMARK  109  A    between atoms: _263  and  _264
REMARK  110  A    between atoms: _264  and  _265
REMARK  111  A    between atoms: _265  and  _266
REMARK  112  A    between atoms: _275  and  _277
REMARK  113  A    between atoms: _277  and  _278
REMARK  114  A    between atoms: _277  and  _280
REMARK  115  A    between atoms: _280  and  _281
REMARK  116  A    between atoms: _284  and  _286
REMARK  117  A    between atoms: _286  and  _287
REMARK  118  A    between atoms: _286  and  _289
REMARK  119  A    between atoms: _289  and  _290
REMARK  120  A    between atoms: _290  and  _291
REMARK  121  A    between atoms: _291  and  _292
REMARK  122  A    between atoms: _301  and  _303
REMARK  123  A    between atoms: _303  and  _304
REMARK  124  A    between atoms: _303  and  _306
REMARK  125  A    between atoms: _306  and  _307
REMARK  126  A    between atoms: _312  and  _314
REMARK  127  A    between atoms: _314  and  _315
REMARK  128  A    between atoms: _314  and  _317
REMARK  129  A    between atoms: _317  and  _318
REMARK  130  A    between atoms: _321  and  _323
REMARK  131  A    between atoms: _323  and  _324
REMARK  132  A    between atoms: _323  and  _326
REMARK  133  A    between atoms: _326  and  _327
REMARK  134  A    between atoms: _330  and  _332
REMARK  135  A    between atoms: _332  and  _333
REMARK  136  A    between atoms: _332  and  _335
REMARK  137  A    between atoms: _335  and  _336
REMARK  138  A    between atoms: _338  and  _340
REMARK  139  A    between atoms: _340  and  _341
REMARK  140  A    between atoms: _340  and  _343
REMARK  141  A    between atoms: _343  and  _344
REMARK  142  A    between atoms: _347  and  _349
REMARK  143  A    between atoms: _349  and  _350
REMARK  144  A    between atoms: _349  and  _352
REMARK  145  A    between atoms: _352  and  _353
REMARK  146  A    between atoms: _353  and  _354
REMARK  147  A    between atoms: _359  and  _361
REMARK  148  A    between atoms: _361  and  _362
REMARK  149  A    between atoms: _365  and  _367
REMARK  150  A    between atoms: _367  and  _368
REMARK  151  A    between atoms: _367  and  _370
REMARK  152  A    between atoms: _370  and  _371
REMARK  153  A    between atoms: _376  and  _377
REMARK  154  A    between atoms: _379  and  _381
REMARK  155  A    between atoms: _381  and  _382
REMARK  156  A    between atoms: _381  and  _384
REMARK  157  A    between atoms: _384  and  _385
REMARK  158  A    between atoms: _385  and  _386
REMARK  159  A    between atoms: _391  and  _393
REMARK  160  A    between atoms: _393  and  _394
REMARK  161  A    between atoms: _396  and  _398
REMARK  162  A    between atoms: _398  and  _399
REMARK  163  A    between atoms: _401  and  _403
REMARK  164  A    between atoms: _403  and  _404
REMARK  165  A    between atoms: _403  and  _406
REMARK  166  A    between atoms: _406  and  _407
REMARK  167  A    between atoms: _407  and  _408
REMARK  168  A    between atoms: _408  and  _409
REMARK  169  A    between atoms: _418  and  _420
REMARK  170  A    between atoms: _420  and  _421
REMARK  171  A    between atoms: _420  and  _423
REMARK  172  A    between atoms: _423  and  _424
REMARK  173  A    between atoms: _427  and  _429
REMARK  174  A    between atoms: _429  and  _430
REMARK  175  A    between atoms: _429  and  _432
REMARK  176  A    between atoms: _435  and  _437
REMARK  177  A    between atoms: _437  and  _438
REMARK  178  A    between atoms: _437  and  _440
REMARK  179  A    between atoms: _443  and  _445
REMARK  180  A    between atoms: _445  and  _446
REMARK  181  A    between atoms: _448  and  _450
REMARK  182  A    between atoms: _450  and  _451
REMARK  183  A    between atoms: _450  and  _453
REMARK  184  A    between atoms: _453  and  _454
REMARK  185  A    between atoms: _454  and  _455
REMARK  186  A    between atoms: _455  and  _456
REMARK  187  A    between atoms: _456  and  _457
REMARK  188  A    between atoms: _461  and  _463
REMARK  189  A    between atoms: _463  and  _464
REMARK  190  A    between atoms: _463  and  _466
REMARK  191  A    between atoms: _466  and  _467
REMARK  192  A    between atoms: _467  and  _468
REMARK  193  A    between atoms: _468  and  _469
REMARK  194  A    between atoms: _478  and  _480
REMARK  195  A    between atoms: _480  and  _481
REMARK  196  A    between atoms: _484  and  _486
REMARK  197  A    between atoms: _486  and  _487
REMARK  198  A    between atoms: _486  and  _489
REMARK  199  A    between atoms: _489  and  _490
REMARK  200  A    between atoms: _490  and  _491
REMARK  201  A    between atoms: _491  and  _492
REMARK  202  A    between atoms: _501  and  _503
REMARK  203  A    between atoms: _503  and  _504
REMARK  204  A    between atoms: _507  and  _509
REMARK  205  A    between atoms: _509  and  _510
REMARK  206  A    between atoms: _509  and  _512
REMARK  207  A    between atoms: _512  and  _513
REMARK  208  A    between atoms: _513  and  _514
REMARK  209  A    between atoms: _514  and  _515
REMARK  210  A    between atoms: _524  and  _526
REMARK  211  A    between atoms: _526  and  _527
REMARK  212  A    between atoms: _529  and  _531
REMARK  213  A    between atoms: _531  and  _532
REMARK  214  A    between atoms: _531  and  _534
REMARK  215  A    between atoms: _534  and  _535
REMARK  216  A    between atoms: _535  and  _536
REMARK  217  A    between atoms: _539  and  _541
REMARK  218  A    between atoms: _541  and  _542
REMARK  219  A    between atoms: _541  and  _544
REMARK  220  A    between atoms: _544  and  _545
REMARK  221  A    between atoms: _548  and  _550
REMARK  222  A    between atoms: _550  and  _551
REMARK  223  A    between atoms: _550  and  _553
REMARK  224  A    between atoms: _553  and  _554
REMARK  225  A    between atoms: _557  and  _559
REMARK  226  A    between atoms: _559  and  _560
REMARK  227  A    between atoms: _559  and  _562
REMARK  228  A    between atoms: _562  and  _563
REMARK  229  A    between atoms: _563  and  _564
REMARK  230  A    between atoms: _564  and  _565
REMARK  231  A    between atoms: _574  and  _576
REMARK  232  A    between atoms: _576  and  _577
REMARK  233  A    between atoms: _576  and  _579
REMARK  234  A    between atoms: _579  and  _580
REMARK  235  A    between atoms: _583  and  _585
REMARK  236  A    between atoms: _585  and  _586
REMARK  237  A    between atoms: _585  and  _588
REMARK  238  A    between atoms: _588  and  _589
REMARK  239  A    between atoms: _589  and  _590
REMARK  240  A    between atoms: _593  and  _595
REMARK  241  A    between atoms: _595  and  _596
REMARK  242  A    between atoms: _595  and  _598
REMARK  243  A    between atoms: _598  and  _599
REMARK  244  A    between atoms: _599  and  _600
REMARK  245  A    between atoms: _605  and  _607
REMARK  246  A    between atoms: _607  and  _608
REMARK  247  A    between atoms: _607  and  _610
REMARK  248  A    between atoms: _610  and  _611
REMARK  249  A    between atoms: _611  and  _612
REMARK  250  A    between atoms: _615  and  _617
REMARK  251  A    between atoms: _617  and  _618
REMARK  252  A    between atoms: _617  and  _620
REMARK  253  A    between atoms: _620  and  _621
REMARK  254  A    between atoms: _627  and  _629
REMARK  255  A    between atoms: _629  and  _630
REMARK  256  A    between atoms: _629  and  _632
REMARK  257  A    between atoms: _632  and  _633
REMARK  258  A    between atoms: _639  and  _641
REMARK  259  A    between atoms: _641  and  _642
REMARK  260  A    between atoms: _641  and  _644
REMARK  261  A    between atoms: _644  and  _645
REMARK  262  A    between atoms: _648  and  _650
REMARK  263  A    between atoms: _650  and  _651
REMARK  264  A    between atoms: _650  and  _653
REMARK  265  A    between atoms: _653  and  _654
REMARK  266  A    between atoms: _659  and  _660
REMARK  267  A    between atoms: _662  and  _664
REMARK  268  A    between atoms: _664  and  _665
REMARK  269  A    between atoms: _668  and  _670
REMARK  270  A    between atoms: _670  and  _671
REMARK  271  A    between atoms: _670  and  _673
REMARK  272  A    between atoms: _673  and  _674
REMARK  273  A    between atoms: _674  and  _675
REMARK  274  A    between atoms: _681  and  _682
REMARK  275  A    between atoms: _687  and  _689
REMARK  276  A    between atoms: _689  and  _690
REMARK  277  A    between atoms: _689  and  _692
REMARK  278  A    between atoms: _692  and  _693
REMARK  279  A    between atoms: _696  and  _698
REMARK  280  A    between atoms: _698  and  _699
REMARK  281  A    between atoms: _698  and  _701
REMARK  282  A    between atoms: _701  and  _702
REMARK  283  A    between atoms: _702  and  _703
REMARK  284  A    between atoms: _706  and  _708
REMARK  285  A    between atoms: _708  and  _709
REMARK  286  A    between atoms: _708  and  _711
REMARK                            x       y       z     vdW  Elec       q    Type
REMARK                         _______ _______ _______ _____ _____    ______ ____
ROOT
ATOM      1  O   HOH     1      25.385  97.350  10.714  0.00  0.00    +0.000 OA
ENDROOT
TORSDOF 0
REMARK  Name = ../refined-set-2016/4tmk/4tmk_pocket.pdb
REMARK  286 active torsions:
REMARK  status: ('A' for Active; 'I' for Inactive)
REMARK    1  A    between atoms: _1  and  _3
REMARK    2  A    between atoms: _3  and  _4
REMARK    3  A    between atoms: _3  and  _6
REMARK    4  A    between atoms: _6  and  _7
REMARK    5  A    between atoms: _10  and  _12
REMARK    6  A    between atoms: _12  and  _13
REMARK    7  A    between atoms: _12  and  _15
REMARK    8  A    between atoms: _15  and  _16
REMARK    9  A    between atoms: _16  and  _17
REMARK   10  A    between atoms: _20  and  _22
REMARK   11  A    between atoms: _22  and  _23
REMARK   12  A    between atoms: _25  and  _27
REMARK   13  A    between atoms: _27  and  _28
REMARK   14  A    between atoms: _27  and  _30
REMARK   15  A    between atoms: _30  and  _31
REMARK   16  A    between atoms: _34  and  _36
REMARK   17  A    between atoms: _36  and  _37
REMARK   18  A    between atoms: _36  and  _39
REMARK   19  A    between atoms: _39  and  _40
REMARK   20  A    between atoms: _40  and  _41
REMARK   21  A    between atoms: _44  and  _46
REMARK   22  A    between atoms: _46  and  _47
REMARK   23  A    between atoms: _49  and  _51
REMARK   24  A    between atoms: _51  and  _52
REMARK   25  A    between atoms: _55  and  _57
REMARK   26  A    between atoms: _57  and  _58
REMARK   27  A    between atoms: _60  and  _62
REMARK   28  A    between atoms: _62  and  _63
REMARK   29  A    between atoms: _62  and  _65
REMARK   30  A    between atoms: _65  and  _66
REMARK   31  A    between atoms: _66  and  _67
REMARK   32  A    between atoms: _67  and  _68
REMARK   33  A    between atoms: _68  and  _69
REMARK   34  A    between atoms: _73  and  _75
REMARK   35  A    between atoms: _75  and  _76
REMARK   36  A    between atoms: _75  and  _78
REMARK   37  A    between atoms: _78  and  _79
REMARK   38  A    between atoms: _82  and  _84
REMARK   39  A    between atoms: _84  and  _85
REMARK   40  A    between atoms: _84  and  _87
REMARK   41  A    between atoms: _87  and  _88
REMARK   42  A    between atoms: _91  and  _93
REMARK   43  A    between atoms: _93  and  _94
REMARK   44  A    between atoms: _97  and  _99
REMARK   45  A    between atoms: _99  and  _100
REMARK   46  A    between atoms: _99  and  _102
REMARK   47  A    between atoms: _102  and  _103
REMARK   48  A    between atoms: _103  and  _104
REMARK   49  A    between atoms: _104  and  _105
REMARK   50  A    between atoms: _114  and  _116
REMARK   51  A    between atoms: _116  and  _117
REMARK   52  A    between atoms: _116  and  _119
REMARK   53  A    between atoms: _119  and  _120
REMARK   54  A    between atoms: _125  and  _127
REMARK   55  A    between atoms: _127  and  _128
REMARK   56  A    between atoms: _127  and  _130
REMARK   57  A    between atoms: _130  and  _131
REMARK   58  A    between atoms: _131  and  _132
REMARK   59  A    between atoms: _132  and  _133
REMARK   60  A    between atoms: _142  and  _144
REMARK   61  A    between atoms: _144  and  _145
REMARK   62  A    between atoms: _144  and  _147
REMARK   63  A    between atoms: _147  and  _148
REMARK   64  A    between atoms: _148  and  _149
REMARK   65  A    between atoms: _153  and  _154
REMARK   66  A    between atoms: _159  and  _161
REMARK   67  A    between atoms: _161  and  _162
REMARK   68  A    between atoms: _164  and  _166
REMARK   69  A    between atoms: _166  and  _167
REMARK   70  A    between atoms: _166  and  _169
REMARK   71  A    between atoms: _169  and  _170
REMARK   72  A    between atoms: _170  and  _171
REMARK   73  A    between atoms: _171  and  _172
REMARK   74  A    between atoms: _181  and  _183
REMARK   75  A    between atoms: _183  and  _184
REMARK   76  A    between atoms: _183  and  _186
REMARK   77  A    between atoms: _186  and  _187
REMARK   78  A    between atoms: _190  and  _192
REMARK   79  A    between atoms: _192  and  _193
REMARK   80  A    between atoms: _192  and  _195
REMARK   81  A    between atoms: _195  and  _196
REMARK   82  A    between atoms: _199  and  _201
REMARK   83  A    between atoms: _201  and  _202
REMARK   84  A    between atoms: _201  and  _204
REMARK   85  A    between atoms: _204  and  _205
REMARK   86  A    between atoms: _205  and  _206
REMARK   87  A    between atoms: _209  and  _211
REMARK   88  A    between atoms: _211  and  _212
REMARK   89  A    between atoms: _211  and  _214
REMARK   90  A    between atoms: _217  and  _219
REMARK   91  A    between atoms: _219  and  _220
REMARK   92  A    between atoms: _219  and  _222
REMARK   93  A    between atoms: _222  and  _223
REMARK   94  A    between atoms: _223  and  _224
REMARK   95  A    between atoms: _226  and  _228
REMARK   96  A    between atoms: _228  and  _229
REMARK   97  A    between atoms: _228  and  _231
REMARK   98  A    between atoms: _231  and  _232
REMARK   99  A    between atoms: _238  and  _240
REMARK  100  A    between atoms: _240  and  _241
REMARK  101  A    between atoms: _240  and  _243
REMARK  102  A    between atoms: _243  and  _244
REMARK  103  A    between atoms: _249  and  _250
REMARK  104  A    between atoms: _252  and  _254
REMARK  105  A    between atoms: _254  and  _255
REMARK  106  A    between atoms: _258  and  _260
REMARK  107  A    between atoms: _260  and  _261
REMARK  108  A    between atoms: _260  and  _263
REMARK  109  A    between atoms: _263  and  _264
REMARK  110  A    between atoms: _264  and  _265
REMARK  111  A    between atoms: _265  and  _266
REMARK  112  A    between atoms: _275  and  _277
REMARK  113  A    between atoms: _277  and  _278
REMARK  114  A    between atoms: _277  and  _280
REMARK  115  A    between atoms: _280  and  _281
REMARK  116  A    between atoms: _284  and  _286
REMARK  117  A    between atoms: _286  and  _287
REMARK  118  A    between atoms: _286  and  _289
REMARK  119  A    between atoms: _289  and  _290
REMARK  120  A    between atoms: _290  and  _291
REMARK  121  A    between atoms: _291  and  _292
REMARK  122  A    between atoms: _301  and  _303
REMARK  123  A    between atoms: _303  and  _304
REMARK  124  A    between atoms: _303  and  _306
REMARK  125  A    between atoms: _306  and  _307
REMARK  126  A    between atoms: _312  and  _314
REMARK  127  A    between atoms: _314  and  _315
REMARK  128  A    between atoms: _314  and  _317
REMARK  129  A    between atoms: _317  and  _318
REMARK  130  A    between atoms: _321  and  _323
REMARK  131  A    between atoms: _323  and  _324
REMARK  132  A    between atoms: _323  and  _326
REMARK  133  A    between atoms: _326  and  _327
REMARK  134  A    between atoms: _330  and  _332
REMARK  135  A    between atoms: _332  and  _333
REMARK  136  A    between atoms: _332  and  _335
REMARK  137  A    between atoms: _335  and  _336
REMARK  138  A    between atoms: _338  and  _340
REMARK  139  A    between atoms: _340  and  _341
REMARK  140  A    between atoms: _340  and  _343
REMARK  141  A    between atoms: _343  and  _344
REMARK  142  A    between atoms: _347  and  _349
REMARK  143  A    between atoms: _349  and  _350
REMARK  144  A    between atoms: _349  and  _352
REMARK  145  A    between atoms: _352  and  _353
REMARK  146  A    between atoms: _353  and  _354
REMARK  147  A    between atoms: _359  and  _361
REMARK  148  A    between atoms: _361  and  _362
REMARK  149  A    between atoms: _365  and  _367
REMARK  150  A    between atoms: _367  and  _368
REMARK  151  A    between atoms: _367  and  _370
REMARK  152  A    between atoms: _370  and  _371
REMARK  153  A    between atoms: _376  and  _377
REMARK  154  A    between atoms: _379  and  _381
REMARK  155  A    between atoms: _381  and  _382
REMARK  156  A    between atoms: _381  and  _384
REMARK  157  A    between atoms: _384  and  _385
REMARK  158  A    between atoms: _385  and  _386
REMARK  159  A    between atoms: _391  and  _393
REMARK  160  A    between atoms: _393  and  _394
REMARK  161  A    between atoms: _396  and  _398
REMARK  162  A    between atoms: _398  and  _399
REMARK  163  A    between atoms: _401  and  _403
REMARK  164  A    between atoms: _403  and  _404
REMARK  165  A    between atoms: _403  and  _406
REMARK  166  A    between atoms: _406  and  _407
REMARK  167  A    between atoms: _407  and  _408
REMARK  168  A    between atoms: _408  and  _409
REMARK  169  A    between atoms: _418  and  _420
REMARK  170  A    between atoms: _420  and  _421
REMARK  171  A    between atoms: _420  and  _423
REMARK  172  A    between atoms: _423  and  _424
REMARK  173  A    between atoms: _427  and  _429
REMARK  174  A    between atoms: _429  and  _430
REMARK  175  A    between atoms: _429  and  _432
REMARK  176  A    between atoms: _435  and  _437
REMARK  177  A    between atoms: _437  and  _438
REMARK  178  A    between atoms: _437  and  _440
REMARK  179  A    between atoms: _443  and  _445
REMARK  180  A    between atoms: _445  and  _446
REMARK  181  A    between atoms: _448  and  _450
REMARK  182  A    between atoms: _450  and  _451
REMARK  183  A    between atoms: _450  and  _453
REMARK  184  A    between atoms: _453  and  _454
REMARK  185  A    between atoms: _454  and  _455
REMARK  186  A    between atoms: _455  and  _456
REMARK  187  A    between atoms: _456  and  _457
REMARK  188  A    between atoms: _461  and  _463
REMARK  189  A    between atoms: _463  and  _464
REMARK  190  A    between atoms: _463  and  _466
REMARK  191  A    between atoms: _466  and  _467
REMARK  192  A    between atoms: _467  and  _468
REMARK  193  A    between atoms: _468  and  _469
REMARK  194  A    between atoms: _478  and  _480
REMARK  195  A    between atoms: _480  and  _481
REMARK  196  A    between atoms: _484  and  _486
REMARK  197  A    between atoms: _486  and  _487
REMARK  198  A    between atoms: _486  and  _489
REMARK  199  A    between atoms: _489  and  _490
REMARK  200  A    between atoms: _490  and  _491
REMARK  201  A    between atoms: _491  and  _492
REMARK  202  A    between atoms: _501  and  _503
REMARK  203  A    between atoms: _503  and  _504
REMARK  204  A    between atoms: _507  and  _509
REMARK  205  A    between atoms: _509  and  _510
REMARK  206  A    between atoms: _509  and  _512
REMARK  207  A    between atoms: _512  and  _513
REMARK  208  A    between atoms: _513  and  _514
REMARK  209  A    between atoms: _514  and  _515
REMARK  210  A    between atoms: _524  and  _526
REMARK  211  A    between atoms: _526  and  _527
REMARK  212  A    between atoms: _529  and  _531
REMARK  213  A    between atoms: _531  and  _532
REMARK  214  A    between atoms: _531  and  _534
REMARK  215  A    between atoms: _534  and  _535
REMARK  216  A    between atoms: _535  and  _536
REMARK  217  A    between atoms: _539  and  _541
REMARK  218  A    between atoms: _541  and  _542
REMARK  219  A    between atoms: _541  and  _544
REMARK  220  A    between atoms: _544  and  _545
REMARK  221  A    between atoms: _548  and  _550
REMARK  222  A    between atoms: _550  and  _551
REMARK  223  A    between atoms: _550  and  _553
REMARK  224  A    between atoms: _553  and  _554
REMARK  225  A    between atoms: _557  and  _559
REMARK  226  A    between atoms: _559  and  _560
REMARK  227  A    between atoms: _559  and  _562
REMARK  228  A    between atoms: _562  and  _563
REMARK  229  A    between atoms: _563  and  _564
REMARK  230  A    between atoms: _564  and  _565
REMARK  231  A    between atoms: _574  and  _576
REMARK  232  A    between atoms: _576  and  _577
REMARK  233  A    between atoms: _576  and  _579
REMARK  234  A    between atoms: _579  and  _580
REMARK  235  A    between atoms: _583  and  _585
REMARK  236  A    between atoms: _585  and  _586
REMARK  237  A    between atoms: _585  and  _588
REMARK  238  A    between atoms: _588  and  _589
REMARK  239  A    between atoms: _589  and  _590
REMARK  240  A    between atoms: _593  and  _595
REMARK  241  A    between atoms: _595  and  _596
REMARK  242  A    between atoms: _595  and  _598
REMARK  243  A    between atoms: _598  and  _599
REMARK  244  A    between atoms: _599  and  _600
REMARK  245  A    between atoms: _605  and  _607
REMARK  246  A    between atoms: _607  and  _608
REMARK  247  A    between atoms: _607  and  _610
REMARK  248  A    between atoms: _610  and  _611
REMARK  249  A    between atoms: _611  and  _612
REMARK  250  A    between atoms: _615  and  _617
REMARK  251  A    between atoms: _617  and  _618
REMARK  252  A    between atoms: _617  and  _620
REMARK  253  A    between atoms: _620  and  _621
REMARK  254  A    between atoms: _627  and  _629
REMARK  255  A    between atoms: _629  and  _630
REMARK  256  A    between atoms: _629  and  _632
REMARK  257  A    between atoms: _632  and  _633
REMARK  258  A    between atoms: _639  and  _641
REMARK  259  A    between atoms: _641  and  _642
REMARK  260  A    between atoms: _641  and  _644
REMARK  261  A    between atoms: _644  and  _645
REMARK  262  A    between atoms: _648  and  _650
REMARK  263  A    between atoms: _650  and  _651
REMARK  264  A    between atoms: _650  and  _653
REMARK  265  A    between atoms: _653  and  _654
REMARK  266  A    between atoms: _659  and  _660
REMARK  267  A    between atoms: _662  and  _664
REMARK  268  A    between atoms: _664  and  _665
REMARK  269  A    between atoms: _668  and  _670
REMARK  270  A    between atoms: _670  and  _671
REMARK  271  A    between atoms: _670  and  _673
REMARK  272  A    between atoms: _673  and  _674
REMARK  273  A    between atoms: _674  and  _675
REMARK  274  A    between atoms: _681  and  _682
REMARK  275  A    between atoms: _687  and  _689
REMARK  276  A    between atoms: _689  and  _690
REMARK  277  A    between atoms: _689  and  _692
REMARK  278  A    between atoms: _692  and  _693
REMARK  279  A    between atoms: _696  and  _698
REMARK  280  A    between atoms: _698  and  _699
REMARK  281  A    between atoms: _698  and  _701
REMARK  282  A    between atoms: _701  and  _702
REMARK  283  A    between atoms: _702  and  _703
REMARK  284  A    between atoms: _706  and  _708
REMARK  285  A    between atoms: _708  and  _709
REMARK  286  A    between atoms: _708  and  _711
REMARK                            x       y       z     vdW  Elec       q    Type
REMARK                         _______ _______ _______ _____ _____    ______ ____
ROOT
ATOM      1  O   HOH     1      26.339 103.174   6.728  0.00  0.00    +0.000 OA
ENDROOT
TORSDOF 0
REMARK  Name = ../refined-set-2016/4tmk/4tmk_pocket.pdb
REMARK  286 active torsions:
REMARK  status: ('A' for Active; 'I' for Inactive)
REMARK    1  A    between atoms: _1  and  _3
REMARK    2  A    between atoms: _3  and  _4
REMARK    3  A    between atoms: _3  and  _6
REMARK    4  A    between atoms: _6  and  _7
REMARK    5  A    between atoms: _10  and  _12
REMARK    6  A    between atoms: _12  and  _13
REMARK    7  A    between atoms: _12  and  _15
REMARK    8  A    between atoms: _15  and  _16
REMARK    9  A    between atoms: _16  and  _17
REMARK   10  A    between atoms: _20  and  _22
REMARK   11  A    between atoms: _22  and  _23
REMARK   12  A    between atoms: _25  and  _27
REMARK   13  A    between atoms: _27  and  _28
REMARK   14  A    between atoms: _27  and  _30
REMARK   15  A    between atoms: _30  and  _31
REMARK   16  A    between atoms: _34  and  _36
REMARK   17  A    between atoms: _36  and  _37
REMARK   18  A    between atoms: _36  and  _39
REMARK   19  A    between atoms: _39  and  _40
REMARK   20  A    between atoms: _40  and  _41
REMARK   21  A    between atoms: _44  and  _46
REMARK   22  A    between atoms: _46  and  _47
REMARK   23  A    between atoms: _49  and  _51
REMARK   24  A    between atoms: _51  and  _52
REMARK   25  A    between atoms: _55  and  _57
REMARK   26  A    between atoms: _57  and  _58
REMARK   27  A    between atoms: _60  and  _62
REMARK   28  A    between atoms: _62  and  _63
REMARK   29  A    between atoms: _62  and  _65
REMARK   30  A    between atoms: _65  and  _66
REMARK   31  A    between atoms: _66  and  _67
REMARK   32  A    between atoms: _67  and  _68
REMARK   33  A    between atoms: _68  and  _69
REMARK   34  A    between atoms: _73  and  _75
REMARK   35  A    between atoms: _75  and  _76
REMARK   36  A    between atoms: _75  and  _78
REMARK   37  A    between atoms: _78  and  _79
REMARK   38  A    between atoms: _82  and  _84
REMARK   39  A    between atoms: _84  and  _85
REMARK   40  A    between atoms: _84  and  _87
REMARK   41  A    between atoms: _87  and  _88
REMARK   42  A    between atoms: _91  and  _93
REMARK   43  A    between atoms: _93  and  _94
REMARK   44  A    between atoms: _97  and  _99
REMARK   45  A    between atoms: _99  and  _100
REMARK   46  A    between atoms: _99  and  _102
REMARK   47  A    between atoms: _102  and  _103
REMARK   48  A    between atoms: _103  and  _104
REMARK   49  A    between atoms: _104  and  _105
REMARK   50  A    between atoms: _114  and  _116
REMARK   51  A    between atoms: _116  and  _117
REMARK   52  A    between atoms: _116  and  _119
REMARK   53  A    between atoms: _119  and  _120
REMARK   54  A    between atoms: _125  and  _127
REMARK   55  A    between atoms: _127  and  _128
REMARK   56  A    between atoms: _127  and  _130
REMARK   57  A    between atoms: _130  and  _131
REMARK   58  A    between atoms: _131  and  _132
REMARK   59  A    between atoms: _132  and  _133
REMARK   60  A    between atoms: _142  and  _144
REMARK   61  A    between atoms: _144  and  _145
REMARK   62  A    between atoms: _144  and  _147
REMARK   63  A    between atoms: _147  and  _148
REMARK   64  A    between atoms: _148  and  _149
REMARK   65  A    between atoms: _153  and  _154
REMARK   66  A    between atoms: _159  and  _161
REMARK   67  A    between atoms: _161  and  _162
REMARK   68  A    between atoms: _164  and  _166
REMARK   69  A    between atoms: _166  and  _167
REMARK   70  A    between atoms: _166  and  _169
REMARK   71  A    between atoms: _169  and  _170
REMARK   72  A    between atoms: _170  and  _171
REMARK   73  A    between atoms: _171  and  _172
REMARK   74  A    between atoms: _181  and  _183
REMARK   75  A    between atoms: _183  and  _184
REMARK   76  A    between atoms: _183  and  _186
REMARK   77  A    between atoms: _186  and  _187
REMARK   78  A    between atoms: _190  and  _192
REMARK   79  A    between atoms: _192  and  _193
REMARK   80  A    between atoms: _192  and  _195
REMARK   81  A    between atoms: _195  and  _196
REMARK   82  A    between atoms: _199  and  _201
REMARK   83  A    between atoms: _201  and  _202
REMARK   84  A    between atoms: _201  and  _204
REMARK   85  A    between atoms: _204  and  _205
REMARK   86  A    between atoms: _205  and  _206
REMARK   87  A    between atoms: _209  and  _211
REMARK   88  A    between atoms: _211  and  _212
REMARK   89  A    between atoms: _211  and  _214
REMARK   90  A    between atoms: _217  and  _219
REMARK   91  A    between atoms: _219  and  _220
REMARK   92  A    between atoms: _219  and  _222
REMARK   93  A    between atoms: _222  and  _223
REMARK   94  A    between atoms: _223  and  _224
REMARK   95  A    between atoms: _226  and  _228
REMARK   96  A    between atoms: _228  and  _229
REMARK   97  A    between atoms: _228  and  _231
REMARK   98  A    between atoms: _231  and  _232
REMARK   99  A    between atoms: _238  and  _240
REMARK  100  A    between atoms: _240  and  _241
REMARK  101  A    between atoms: _240  and  _243
REMARK  102  A    between atoms: _243  and  _244
REMARK  103  A    between atoms: _249  and  _250
REMARK  104  A    between atoms: _252  and  _254
REMARK  105  A    between atoms: _254  and  _255
REMARK  106  A    between atoms: _258  and  _260
REMARK  107  A    between atoms: _260  and  _261
REMARK  108  A    between atoms: _260  and  _263
REMARK  109  A    between atoms: _263  and  _264
REMARK  110  A    between atoms: _264  and  _265
REMARK  111  A    between atoms: _265  and  _266
REMARK  112  A    between atoms: _275  and  _277
REMARK  113  A    between atoms: _277  and  _278
REMARK  114  A    between atoms: _277  and  _280
REMARK  115  A    between atoms: _280  and  _281
REMARK  116  A    between atoms: _284  and  _286
REMARK  117  A    between atoms: _286  and  _287
REMARK  118  A    between atoms: _286  and  _289
REMARK  119  A    between atoms: _289  and  _290
REMARK  120  A    between atoms: _290  and  _291
REMARK  121  A    between atoms: _291  and  _292
REMARK  122  A    between atoms: _301  and  _303
REMARK  123  A    between atoms: _303  and  _304
REMARK  124  A    between atoms: _303  and  _306
REMARK  125  A    between atoms: _306  and  _307
REMARK  126  A    between atoms: _312  and  _314
REMARK  127  A    between atoms: _314  and  _315
REMARK  128  A    between atoms: _314  and  _317
REMARK  129  A    between atoms: _317  and  _318
REMARK  130  A    between atoms: _321  and  _323
REMARK  131  A    between atoms: _323  and  _324
REMARK  132  A    between atoms: _323  and  _326
REMARK  133  A    between atoms: _326  and  _327
REMARK  134  A    between atoms: _330  and  _332
REMARK  135  A    between atoms: _332  and  _333
REMARK  136  A    between atoms: _332  and  _335
REMARK  137  A    between atoms: _335  and  _336
REMARK  138  A    between atoms: _338  and  _340
REMARK  139  A    between atoms: _340  and  _341
REMARK  140  A    between atoms: _340  and  _343
REMARK  141  A    between atoms: _343  and  _344
REMARK  142  A    between atoms: _347  and  _349
REMARK  143  A    between atoms: _349  and  _350
REMARK  144  A    between atoms: _349  and  _352
REMARK  145  A    between atoms: _352  and  _353
REMARK  146  A    between atoms: _353  and  _354
REMARK  147  A    between atoms: _359  and  _361
REMARK  148  A    between atoms: _361  and  _362
REMARK  149  A    between atoms: _365  and  _367
REMARK  150  A    between atoms: _367  and  _368
REMARK  151  A    between atoms: _367  and  _370
REMARK  152  A    between atoms: _370  and  _371
REMARK  153  A    between atoms: _376  and  _377
REMARK  154  A    between atoms: _379  and  _381
REMARK  155  A    between atoms: _381  and  _382
REMARK  156  A    between atoms: _381  and  _384
REMARK  157  A    between atoms: _384  and  _385
REMARK  158  A    between atoms: _385  and  _386
REMARK  159  A    between atoms: _391  and  _393
REMARK  160  A    between atoms: _393  and  _394
REMARK  161  A    between atoms: _396  and  _398
REMARK  162  A    between atoms: _398  and  _399
REMARK  163  A    between atoms: _401  and  _403
REMARK  164  A    between atoms: _403  and  _404
REMARK  165  A    between atoms: _403  and  _406
REMARK  166  A    between atoms: _406  and  _407
REMARK  167  A    between atoms: _407  and  _408
REMARK  168  A    between atoms: _408  and  _409
REMARK  169  A    between atoms: _418  and  _420
REMARK  170  A    between atoms: _420  and  _421
REMARK  171  A    between atoms: _420  and  _423
REMARK  172  A    between atoms: _423  and  _424
REMARK  173  A    between atoms: _427  and  _429
REMARK  174  A    between atoms: _429  and  _430
REMARK  175  A    between atoms: _429  and  _432
REMARK  176  A    between atoms: _435  and  _437
REMARK  177  A    between atoms: _437  and  _438
REMARK  178  A    between atoms: _437  and  _440
REMARK  179  A    between atoms: _443  and  _445
REMARK  180  A    between atoms: _445  and  _446
REMARK  181  A    between atoms: _448  and  _450
REMARK  182  A    between atoms: _450  and  _451
REMARK  183  A    between atoms: _450  and  _453
REMARK  184  A    between atoms: _453  and  _454
REMARK  185  A    between atoms: _454  and  _455
REMARK  186  A    between atoms: _455  and  _456
REMARK  187  A    between atoms: _456  and  _457
REMARK  188  A    between atoms: _461  and  _463
REMARK  189  A    between atoms: _463  and  _464
REMARK  190  A    between atoms: _463  and  _466
REMARK  191  A    between atoms: _466  and  _467
REMARK  192  A    between atoms: _467  and  _468
REMARK  193  A    between atoms: _468  and  _469
REMARK  194  A    between atoms: _478  and  _480
REMARK  195  A    between atoms: _480  and  _481
REMARK  196  A    between atoms: _484  and  _486
REMARK  197  A    between atoms: _486  and  _487
REMARK  198  A    between atoms: _486  and  _489
REMARK  199  A    between atoms: _489  and  _490
REMARK  200  A    between atoms: _490  and  _491
REMARK  201  A    between atoms: _491  and  _492
REMARK  202  A    between atoms: _501  and  _503
REMARK  203  A    between atoms: _503  and  _504
REMARK  204  A    between atoms: _507  and  _509
REMARK  205  A    between atoms: _509  and  _510
REMARK  206  A    between atoms: _509  and  _512
REMARK  207  A    between atoms: _512  and  _513
REMARK  208  A    between atoms: _513  and  _514
REMARK  209  A    between atoms: _514  and  _515
REMARK  210  A    between atoms: _524  and  _526
REMARK  211  A    between atoms: _526  and  _527
REMARK  212  A    between atoms: _529  and  _531
REMARK  213  A    between atoms: _531  and  _532
REMARK  214  A    between atoms: _531  and  _534
REMARK  215  A    between atoms: _534  and  _535
REMARK  216  A    between atoms: _535  and  _536
REMARK  217  A    between atoms: _539  and  _541
REMARK  218  A    between atoms: _541  and  _542
REMARK  219  A    between atoms: _541  and  _544
REMARK  220  A    between atoms: _544  and  _545
REMARK  221  A    between atoms: _548  and  _550
REMARK  222  A    between atoms: _550  and  _551
REMARK  223  A    between atoms: _550  and  _553
REMARK  224  A    between atoms: _553  and  _554
REMARK  225  A    between atoms: _557  and  _559
REMARK  226  A    between atoms: _559  and  _560
REMARK  227  A    between atoms: _559  and  _562
REMARK  228  A    between atoms: _562  and  _563
REMARK  229  A    between atoms: _563  and  _564
REMARK  230  A    between atoms: _564  and  _565
REMARK  231  A    between atoms: _574  and  _576
REMARK  232  A    between atoms: _576  and  _577
REMARK  233  A    between atoms: _576  and  _579
REMARK  234  A    between atoms: _579  and  _580
REMARK  235  A    between atoms: _583  and  _585
REMARK  236  A    between atoms: _585  and  _586
REMARK  237  A    between atoms: _585  and  _588
REMARK  238  A    between atoms: _588  and  _589
REMARK  239  A    between atoms: _589  and  _590
REMARK  240  A    between atoms: _593  and  _595
REMARK  241  A    between atoms: _595  and  _596
REMARK  242  A    between atoms: _595  and  _598
REMARK  243  A    between atoms: _598  and  _599
REMARK  244  A    between atoms: _599  and  _600
REMARK  245  A    between atoms: _605  and  _607
REMARK  246  A    between atoms: _607  and  _608
REMARK  247  A    between atoms: _607  and  _610
REMARK  248  A    between atoms: _610  and  _611
REMARK  249  A    between atoms: _611  and  _612
REMARK  250  A    between atoms: _615  and  _617
REMARK  251  A    between atoms: _617  and  _618
REMARK  252  A    between atoms: _617  and  _620
REMARK  253  A    between atoms: _620  and  _621
REMARK  254  A    between atoms: _627  and  _629
REMARK  255  A    between atoms: _629  and  _630
REMARK  256  A    between atoms: _629  and  _632
REMARK  257  A    between atoms: _632  and  _633
REMARK  258  A    between atoms: _639  and  _641
REMARK  259  A    between atoms: _641  and  _642
REMARK  260  A    between atoms: _641  and  _644
REMARK  261  A    between atoms: _644  and  _645
REMARK  262  A    between atoms: _648  and  _650
REMARK  263  A    between atoms: _650  and  _651
REMARK  264  A    between atoms: _650  and  _653
REMARK  265  A    between atoms: _653  and  _654
REMARK  266  A    between atoms: _659  and  _660
REMARK  267  A    between atoms: _662  and  _664
REMARK  268  A    between atoms: _664  and  _665
REMARK  269  A    between atoms: _668  and  _670
REMARK  270  A    between atoms: _670  and  _671
REMARK  271  A    between atoms: _670  and  _673
REMARK  272  A    between atoms: _673  and  _674
REMARK  273  A    between atoms: _674  and  _675
REMARK  274  A    between atoms: _681  and  _682
REMARK  275  A    between atoms: _687  and  _689
REMARK  276  A    between atoms: _689  and  _690
REMARK  277  A    between atoms: _689  and  _692
REMARK  278  A    between atoms: _692  and  _693
REMARK  279  A    between atoms: _696  and  _698
REMARK  280  A    between atoms: _698  and  _699
REMARK  281  A    between atoms: _698  and  _701
REMARK  282  A    between atoms: _701  and  _702
REMARK  283  A    between atoms: _702  and  _703
REMARK  284  A    between atoms: _706  and  _708
REMARK  285  A    between atoms: _708  and  _709
REMARK  286  A    between atoms: _708  and  _711
REMARK                            x       y       z     vdW  Elec       q    Type
REMARK                         _______ _______ _______ _____ _____    ______ ____
ROOT
ATOM      1  O   HOH     1       8.215 114.178  15.890  0.00  0.00    +0.000 OA
ENDROOT
TORSDOF 0
